* NGSPICE file created from top_level_20250919_wire.ext - technology: gf180mcuD

.subckt pfet$118 w_n180_n88# a_n92_0# a_138_0# a_38_n136#
X0 a_138_0# a_38_n136# a_n92_0# w_n180_n88# pfet_03v3 ad=7.8p pd=25.3u as=7.8p ps=25.3u w=12u l=0.5u
.ends

.subckt nfet$126 a_38_n60# a_n84_0# a_138_0# VSUBS
X0 a_138_0# a_38_n60# a_n84_0# VSUBS nfet_03v3 ad=0.61p pd=3.22u as=0.61p ps=3.22u w=1u l=0.5u
.ends

.subckt nfet$124 a_750_0# a_546_0# a_446_n60# a_242_n60# a_38_n60# a_n84_0# a_342_0#
+ a_138_0# a_650_n60# VSUBS
X0 a_342_0# a_242_n60# a_138_0# VSUBS nfet_03v3 ad=1.04p pd=4.52u as=1.04p ps=4.52u w=4u l=0.5u
X1 a_546_0# a_446_n60# a_342_0# VSUBS nfet_03v3 ad=1.04p pd=4.52u as=1.04p ps=4.52u w=4u l=0.5u
X2 a_138_0# a_38_n60# a_n84_0# VSUBS nfet_03v3 ad=1.04p pd=4.52u as=2.44p ps=9.22u w=4u l=0.5u
X3 a_750_0# a_650_n60# a_546_0# VSUBS nfet_03v3 ad=2.44p pd=9.22u as=1.04p ps=4.52u w=4u l=0.5u
.ends

.subckt pfet$121 w_n180_n88# a_n92_0# a_138_0# a_38_n136#
X0 a_138_0# a_38_n136# a_n92_0# w_n180_n88# pfet_03v3 ad=1.95p pd=7.3u as=1.95p ps=7.3u w=3u l=0.5u
.ends

.subckt pfet$119 w_n180_n88# a_n92_0# a_138_0# a_38_n136#
X0 a_138_0# a_38_n136# a_n92_0# w_n180_n88# pfet_03v3 ad=1.95p pd=7.3u as=1.95p ps=7.3u w=3u l=0.5u
.ends

.subckt nfet$127 a_1158_0# a_750_0# a_546_0# a_446_n60# a_242_n60# a_1566_0# a_954_0#
+ a_1466_n60# a_1262_n60# a_38_n60# a_n84_0# a_1058_n60# a_854_n60# a_342_0# a_138_0#
+ a_650_n60# a_1362_0# VSUBS
X0 a_954_0# a_854_n60# a_750_0# VSUBS nfet_03v3 ad=1.04p pd=4.52u as=1.04p ps=4.52u w=4u l=0.5u
X1 a_1566_0# a_1466_n60# a_1362_0# VSUBS nfet_03v3 ad=2.44p pd=9.22u as=1.04p ps=4.52u w=4u l=0.5u
X2 a_342_0# a_242_n60# a_138_0# VSUBS nfet_03v3 ad=1.04p pd=4.52u as=1.04p ps=4.52u w=4u l=0.5u
X3 a_546_0# a_446_n60# a_342_0# VSUBS nfet_03v3 ad=1.04p pd=4.52u as=1.04p ps=4.52u w=4u l=0.5u
X4 a_1158_0# a_1058_n60# a_954_0# VSUBS nfet_03v3 ad=1.04p pd=4.52u as=1.04p ps=4.52u w=4u l=0.5u
X5 a_138_0# a_38_n60# a_n84_0# VSUBS nfet_03v3 ad=1.04p pd=4.52u as=2.44p ps=9.22u w=4u l=0.5u
X6 a_750_0# a_650_n60# a_546_0# VSUBS nfet_03v3 ad=1.04p pd=4.52u as=1.04p ps=4.52u w=4u l=0.5u
X7 a_1362_0# a_1262_n60# a_1158_0# VSUBS nfet_03v3 ad=1.04p pd=4.52u as=1.04p ps=4.52u w=4u l=0.5u
.ends

.subckt pfet$117 a_750_0# a_546_0# w_n180_n88# a_n92_0# a_446_n136# a_650_n136# a_342_0#
+ a_138_0# a_38_n136# a_242_n136#
X0 a_342_0# a_242_n136# a_138_0# w_n180_n88# pfet_03v3 ad=3.12p pd=12.52u as=3.12p ps=12.52u w=12u l=0.5u
X1 a_546_0# a_446_n136# a_342_0# w_n180_n88# pfet_03v3 ad=3.12p pd=12.52u as=3.12p ps=12.52u w=12u l=0.5u
X2 a_138_0# a_38_n136# a_n92_0# w_n180_n88# pfet_03v3 ad=3.12p pd=12.52u as=7.8p ps=25.3u w=12u l=0.5u
X3 a_750_0# a_650_n136# a_546_0# w_n180_n88# pfet_03v3 ad=7.8p pd=25.3u as=3.12p ps=12.52u w=12u l=0.5u
.ends

.subckt nfet$125 a_38_n60# a_n84_0# a_138_0# VSUBS
X0 a_138_0# a_38_n60# a_n84_0# VSUBS nfet_03v3 ad=2.44p pd=9.22u as=2.44p ps=9.22u w=4u l=0.5u
.ends

.subckt pfet$120 a_1158_0# a_750_0# a_1058_n136# a_546_0# a_1262_n136# a_1566_0# a_954_0#
+ w_n180_n88# a_854_n136# a_n92_0# a_446_n136# a_650_n136# a_342_0# a_1466_n136# a_138_0#
+ a_38_n136# a_1362_0# a_242_n136#
X0 a_1362_0# a_1262_n136# a_1158_0# w_n180_n88# pfet_03v3 ad=3.12p pd=12.52u as=3.12p ps=12.52u w=12u l=0.5u
X1 a_954_0# a_854_n136# a_750_0# w_n180_n88# pfet_03v3 ad=3.12p pd=12.52u as=3.12p ps=12.52u w=12u l=0.5u
X2 a_1566_0# a_1466_n136# a_1362_0# w_n180_n88# pfet_03v3 ad=7.8p pd=25.3u as=3.12p ps=12.52u w=12u l=0.5u
X3 a_342_0# a_242_n136# a_138_0# w_n180_n88# pfet_03v3 ad=3.12p pd=12.52u as=3.12p ps=12.52u w=12u l=0.5u
X4 a_546_0# a_446_n136# a_342_0# w_n180_n88# pfet_03v3 ad=3.12p pd=12.52u as=3.12p ps=12.52u w=12u l=0.5u
X5 a_1158_0# a_1058_n136# a_954_0# w_n180_n88# pfet_03v3 ad=3.12p pd=12.52u as=3.12p ps=12.52u w=12u l=0.5u
X6 a_138_0# a_38_n136# a_n92_0# w_n180_n88# pfet_03v3 ad=3.12p pd=12.52u as=7.8p ps=25.3u w=12u l=0.5u
X7 a_750_0# a_650_n136# a_546_0# w_n180_n88# pfet_03v3 ad=3.12p pd=12.52u as=3.12p ps=12.52u w=12u l=0.5u
.ends

.subckt nfet$128 a_38_n60# a_n84_0# a_138_0# VSUBS
X0 a_138_0# a_38_n60# a_n84_0# VSUBS nfet_03v3 ad=0.61p pd=3.22u as=0.61p ps=3.22u w=1u l=0.5u
.ends

.subckt asc_hysteresis_buffer$13 vss in vdd out
Xpfet$118_0 vdd vdd m1_884_42# m1_348_648# pfet$118
Xnfet$126_0 in vss m1_348_648# vss nfet$126
Xnfet$124_0 m1_1156_42# vss m1_884_42# m1_884_42# m1_884_42# m1_1156_42# m1_1156_42#
+ vss m1_884_42# vss nfet$124
Xpfet$121_0 vdd vdd m1_884_42# m1_1156_42# pfet$121
Xpfet$119_0 vdd vdd m1_348_648# in pfet$119
Xnfet$127_0 out out vss m1_1156_42# m1_1156_42# out vss m1_1156_42# m1_1156_42# m1_1156_42#
+ out m1_1156_42# m1_1156_42# out vss m1_1156_42# vss vss nfet$127
Xpfet$117_0 m1_1156_42# vdd vdd m1_1156_42# m1_884_42# m1_884_42# m1_1156_42# vdd
+ m1_884_42# m1_884_42# pfet$117
Xnfet$125_0 m1_348_648# vss m1_884_42# vss nfet$125
Xpfet$120_0 out out m1_1156_42# vdd m1_1156_42# out vdd vdd m1_1156_42# out m1_1156_42#
+ m1_1156_42# out m1_1156_42# vdd m1_1156_42# vdd m1_1156_42# pfet$120
Xnfet$128_0 m1_1156_42# vss m1_884_42# vss nfet$128
.ends

.subckt pfet$60 w_n180_n88# a_n92_0# a_138_0# a_38_n136#
X0 a_138_0# a_38_n136# a_n92_0# w_n180_n88# pfet_03v3 ad=1.95p pd=7.3u as=1.95p ps=7.3u w=3u l=0.5u
.ends

.subckt nfet$64 a_38_n60# a_n84_0# a_138_0# VSUBS
X0 a_138_0# a_38_n60# a_n84_0# VSUBS nfet_03v3 ad=0.61p pd=3.22u as=0.61p ps=3.22u w=1u l=0.5u
.ends

.subckt pfet$61 w_n180_n88# a_n92_0# a_138_0# a_38_n136#
X0 a_138_0# a_38_n136# a_n92_0# w_n180_n88# pfet_03v3 ad=1.95p pd=7.3u as=1.95p ps=7.3u w=3u l=0.5u
.ends

.subckt nfet$65 a_38_n60# a_n84_0# a_138_0# VSUBS
X0 a_138_0# a_38_n60# a_n84_0# VSUBS nfet_03v3 ad=0.61p pd=3.22u as=0.61p ps=3.22u w=1u l=0.5u
.ends

.subckt xp_3_1_MUX$5 S0 S1 VDD VSS OUT_1 C_1 B_1 A_1
Xpfet$60_0 VDD A_1 m1_239_n318# m1_n432_458# pfet$60
Xpfet$60_1 VDD C_1 OUT_1 S1 pfet$60
Xpfet$60_2 VDD B_1 m1_239_n318# S0 pfet$60
Xpfet$60_3 VDD m1_239_n318# OUT_1 m1_n432_n1290# pfet$60
Xnfet$64_0 m1_n432_n1290# C_1 OUT_1 VSS nfet$64
Xnfet$64_1 m1_n432_458# B_1 m1_239_n318# VSS nfet$64
Xnfet$64_2 S1 m1_239_n318# OUT_1 VSS nfet$64
Xnfet$64_3 S0 A_1 m1_239_n318# VSS nfet$64
Xpfet$61_0 VDD VDD m1_n432_n1290# S1 pfet$61
Xpfet$61_1 VDD VDD m1_n432_458# S0 pfet$61
Xnfet$65_1 S0 VSS m1_n432_458# VSS nfet$65
Xnfet$65_0 S1 VSS m1_n432_n1290# VSS nfet$65
.ends

.subckt nfet$4 a_242_n60# a_38_n60# a_n84_0# a_342_0# a_138_0# VSUBS
X0 a_342_0# a_242_n60# a_138_0# VSUBS nfet_03v3 ad=0.61p pd=3.22u as=0.26p ps=1.52u w=1u l=0.5u
X1 a_138_0# a_38_n60# a_n84_0# VSUBS nfet_03v3 ad=0.26p pd=1.52u as=0.61p ps=3.22u w=1u l=0.5u
.ends

.subckt nfet$5 a_38_n60# a_n84_0# a_138_0# VSUBS
X0 a_138_0# a_38_n60# a_n84_0# VSUBS nfet_03v3 ad=0.61p pd=3.22u as=0.61p ps=3.22u w=1u l=0.5u
.ends

.subckt nfet$10 a_38_n60# a_n84_0# a_138_0# VSUBS
X0 a_138_0# a_38_n60# a_n84_0# VSUBS nfet_03v3 ad=0.61p pd=3.22u as=0.61p ps=3.22u w=1u l=0.5u
.ends

.subckt pfet$30 w_n180_n88# a_n92_0# a_342_0# a_138_0# a_38_n136# a_242_n136#
X0 a_342_0# a_242_n136# a_138_0# w_n180_n88# pfet_03v3 ad=1.95p pd=7.3u as=0.78p ps=3.52u w=3u l=0.5u
X1 a_138_0# a_38_n136# a_n92_0# w_n180_n88# pfet_03v3 ad=0.78p pd=3.52u as=1.95p ps=7.3u w=3u l=0.5u
.ends

.subckt nfet$2 a_38_n60# a_n84_0# a_138_0# VSUBS
X0 a_138_0# a_38_n60# a_n84_0# VSUBS nfet_03v3 ad=0.61p pd=3.22u as=0.61p ps=3.22u w=1u l=0.5u
.ends

.subckt pfet$4 w_n180_n88# a_n92_0# a_342_0# a_138_0# a_38_n136# a_242_n136#
X0 a_342_0# a_242_n136# a_138_0# w_n180_n88# pfet_03v3 ad=1.95p pd=7.3u as=0.78p ps=3.52u w=3u l=0.5u
X1 a_138_0# a_38_n136# a_n92_0# w_n180_n88# pfet_03v3 ad=0.78p pd=3.52u as=1.95p ps=7.3u w=3u l=0.5u
.ends

.subckt pfet$3 w_n180_n88# a_n92_0# a_342_0# a_138_0# a_38_n136# a_242_n136#
X0 a_342_0# a_242_n136# a_138_0# w_n180_n88# pfet_03v3 ad=1.95p pd=7.3u as=0.78p ps=3.52u w=3u l=0.5u
X1 a_138_0# a_38_n136# a_n92_0# w_n180_n88# pfet_03v3 ad=0.78p pd=3.52u as=1.95p ps=7.3u w=3u l=0.5u
.ends

.subckt pfet$1 w_n180_n88# a_n92_0# a_138_0# a_38_n136#
X0 a_138_0# a_38_n136# a_n92_0# w_n180_n88# pfet_03v3 ad=1.95p pd=7.3u as=1.95p ps=7.3u w=3u l=0.5u
.ends

.subckt nfet$28 a_242_n60# a_38_n60# a_n84_0# a_342_0# a_138_0# VSUBS
X0 a_342_0# a_242_n60# a_138_0# VSUBS nfet_03v3 ad=0.61p pd=3.22u as=0.26p ps=1.52u w=1u l=0.5u
X1 a_138_0# a_38_n60# a_n84_0# VSUBS nfet_03v3 ad=0.26p pd=1.52u as=0.61p ps=3.22u w=1u l=0.5u
.ends

.subckt pfet$27 w_n180_n88# a_n92_0# a_138_0# a_38_n136#
X0 a_138_0# a_38_n136# a_n92_0# w_n180_n88# pfet_03v3 ad=1.95p pd=7.3u as=1.95p ps=7.3u w=3u l=0.5u
.ends

.subckt nfet$6 a_38_n60# a_n84_0# a_138_0# VSUBS
X0 a_138_0# a_38_n60# a_n84_0# VSUBS nfet_03v3 ad=0.61p pd=3.22u as=0.61p ps=3.22u w=1u l=0.5u
.ends

.subckt pfet$18 w_n180_n88# a_n92_0# a_342_0# a_138_0# a_38_n136# a_242_n136#
X0 a_342_0# a_242_n136# a_138_0# w_n180_n88# pfet_03v3 ad=1.95p pd=7.3u as=0.78p ps=3.52u w=3u l=0.5u
X1 a_138_0# a_38_n136# a_n92_0# w_n180_n88# pfet_03v3 ad=0.78p pd=3.52u as=1.95p ps=7.3u w=3u l=0.5u
.ends

.subckt nfet$17 a_38_n60# a_n84_0# a_138_0# VSUBS
X0 a_138_0# a_38_n60# a_n84_0# VSUBS nfet_03v3 ad=0.61p pd=3.22u as=0.61p ps=3.22u w=1u l=0.5u
.ends

.subckt nfet$24 a_38_n60# a_n84_0# a_138_0# VSUBS
X0 a_138_0# a_38_n60# a_n84_0# VSUBS nfet_03v3 ad=0.61p pd=3.22u as=0.61p ps=3.22u w=1u l=0.5u
.ends

.subckt nfet$31 a_38_n60# a_n84_0# a_138_0# VSUBS
X0 a_138_0# a_38_n60# a_n84_0# VSUBS nfet_03v3 ad=0.61p pd=3.22u as=0.61p ps=3.22u w=1u l=0.5u
.ends

.subckt pfet$25 w_n180_n88# a_n92_0# a_138_0# a_38_n136#
X0 a_138_0# a_38_n136# a_n92_0# w_n180_n88# pfet_03v3 ad=1.95p pd=7.3u as=1.95p ps=7.3u w=3u l=0.5u
.ends

.subckt pfet$23 w_n180_n88# a_n92_0# a_138_0# a_38_n136#
X0 a_138_0# a_38_n136# a_n92_0# w_n180_n88# pfet_03v3 ad=1.95p pd=7.3u as=1.95p ps=7.3u w=3u l=0.5u
.ends

.subckt pfet$8 w_n180_n88# a_n92_0# a_138_0# a_38_n136#
X0 a_138_0# a_38_n136# a_n92_0# w_n180_n88# pfet_03v3 ad=1.95p pd=7.3u as=1.95p ps=7.3u w=3u l=0.5u
.ends

.subckt pfet$7 w_n180_n88# a_n92_0# a_138_0# a_38_n136#
X0 a_138_0# a_38_n136# a_n92_0# w_n180_n88# pfet_03v3 ad=1.95p pd=7.3u as=1.95p ps=7.3u w=3u l=0.5u
.ends

.subckt pfet$16 w_n180_n88# a_n92_0# a_342_0# a_138_0# a_38_n136# a_242_n136#
X0 a_342_0# a_242_n136# a_138_0# w_n180_n88# pfet_03v3 ad=1.95p pd=7.3u as=0.78p ps=3.52u w=3u l=0.5u
X1 a_138_0# a_38_n136# a_n92_0# w_n180_n88# pfet_03v3 ad=0.78p pd=3.52u as=1.95p ps=7.3u w=3u l=0.5u
.ends

.subckt nfet$29 a_38_n60# a_n84_0# a_138_0# VSUBS
X0 a_138_0# a_38_n60# a_n84_0# VSUBS nfet_03v3 ad=0.61p pd=3.22u as=0.61p ps=3.22u w=1u l=0.5u
.ends

.subckt nfet$22 a_242_n60# a_38_n60# a_n84_0# a_342_0# a_138_0# VSUBS
X0 a_342_0# a_242_n60# a_138_0# VSUBS nfet_03v3 ad=0.61p pd=3.22u as=0.26p ps=1.52u w=1u l=0.5u
X1 a_138_0# a_38_n60# a_n84_0# VSUBS nfet_03v3 ad=0.26p pd=1.52u as=0.61p ps=3.22u w=1u l=0.5u
.ends

.subckt nfet$15 a_242_n60# a_38_n60# a_n84_0# a_342_0# a_138_0# VSUBS
X0 a_342_0# a_242_n60# a_138_0# VSUBS nfet_03v3 ad=0.61p pd=3.22u as=0.26p ps=1.52u w=1u l=0.5u
X1 a_138_0# a_38_n60# a_n84_0# VSUBS nfet_03v3 ad=0.26p pd=1.52u as=0.61p ps=3.22u w=1u l=0.5u
.ends

.subckt pfet$21 w_n180_n88# a_n92_0# a_138_0# a_38_n136#
X0 a_138_0# a_38_n136# a_n92_0# w_n180_n88# pfet_03v3 ad=1.95p pd=7.3u as=1.95p ps=7.3u w=3u l=0.5u
.ends

.subckt pfet$6 w_n180_n88# a_n92_0# a_138_0# a_38_n136#
X0 a_138_0# a_38_n136# a_n92_0# w_n180_n88# pfet_03v3 ad=1.95p pd=7.3u as=1.95p ps=7.3u w=3u l=0.5u
.ends

.subckt pfet$2 w_n180_n88# a_n92_0# a_138_0# a_38_n136#
X0 a_138_0# a_38_n136# a_n92_0# w_n180_n88# pfet_03v3 ad=1.95p pd=7.3u as=1.95p ps=7.3u w=3u l=0.5u
.ends

.subckt nfet$9 a_38_n60# a_n84_0# a_138_0# VSUBS
X0 a_138_0# a_38_n60# a_n84_0# VSUBS nfet_03v3 ad=0.61p pd=3.22u as=0.61p ps=3.22u w=1u l=0.5u
.ends

.subckt pfet$14 w_n180_n88# a_n92_0# a_138_0# a_38_n136#
X0 a_138_0# a_38_n136# a_n92_0# w_n180_n88# pfet_03v3 ad=1.95p pd=7.3u as=1.95p ps=7.3u w=3u l=0.5u
.ends

.subckt nfet$20 a_38_n60# a_n84_0# a_138_0# VSUBS
X0 a_138_0# a_38_n60# a_n84_0# VSUBS nfet_03v3 ad=0.61p pd=3.22u as=0.61p ps=3.22u w=1u l=0.5u
.ends

.subckt nfet$13 a_242_n60# a_38_n60# a_n84_0# a_342_0# a_138_0# VSUBS
X0 a_342_0# a_242_n60# a_138_0# VSUBS nfet_03v3 ad=0.61p pd=3.22u as=0.26p ps=1.52u w=1u l=0.5u
X1 a_138_0# a_38_n60# a_n84_0# VSUBS nfet_03v3 ad=0.26p pd=1.52u as=0.61p ps=3.22u w=1u l=0.5u
.ends

.subckt nfet$3 a_242_n60# a_38_n60# a_n84_0# a_342_0# a_138_0# VSUBS
X0 a_342_0# a_242_n60# a_138_0# VSUBS nfet_03v3 ad=0.61p pd=3.22u as=0.26p ps=1.52u w=1u l=0.5u
X1 a_138_0# a_38_n60# a_n84_0# VSUBS nfet_03v3 ad=0.26p pd=1.52u as=0.61p ps=3.22u w=1u l=0.5u
.ends

.subckt nfet$7 a_38_n60# a_n84_0# a_138_0# VSUBS
X0 a_138_0# a_38_n60# a_n84_0# VSUBS nfet_03v3 ad=0.61p pd=3.22u as=0.61p ps=3.22u w=1u l=0.5u
.ends

.subckt pfet$12 w_n180_n88# a_n92_0# a_138_0# a_38_n136#
X0 a_138_0# a_38_n136# a_n92_0# w_n180_n88# pfet_03v3 ad=1.95p pd=7.3u as=1.95p ps=7.3u w=3u l=0.5u
.ends

.subckt nfet$36 a_38_n60# a_n84_0# a_138_0# VSUBS
X0 a_138_0# a_38_n60# a_n84_0# VSUBS nfet_03v3 ad=0.61p pd=3.22u as=0.61p ps=3.22u w=1u l=0.5u
.ends

.subckt nfet$11 a_38_n60# a_n84_0# a_138_0# VSUBS
X0 a_138_0# a_38_n60# a_n84_0# VSUBS nfet_03v3 ad=0.61p pd=3.22u as=0.61p ps=3.22u w=1u l=0.5u
.ends

.subckt pfet$28 w_n180_n88# a_n92_0# a_138_0# a_38_n136#
X0 a_138_0# a_38_n136# a_n92_0# w_n180_n88# pfet_03v3 ad=1.95p pd=7.3u as=1.95p ps=7.3u w=3u l=0.5u
.ends

.subckt nfet$21 a_242_n60# a_38_n60# a_n84_0# a_342_0# a_138_0# VSUBS
X0 a_342_0# a_242_n60# a_138_0# VSUBS nfet_03v3 ad=0.61p pd=3.22u as=0.26p ps=1.52u w=1u l=0.5u
X1 a_138_0# a_38_n60# a_n84_0# VSUBS nfet_03v3 ad=0.26p pd=1.52u as=0.61p ps=3.22u w=1u l=0.5u
.ends

.subckt pfet$10 w_n180_n88# a_n92_0# a_138_0# a_38_n136#
X0 a_138_0# a_38_n136# a_n92_0# w_n180_n88# pfet_03v3 ad=1.95p pd=7.3u as=1.95p ps=7.3u w=3u l=0.5u
.ends

.subckt nfet$34 a_38_n60# a_n84_0# a_138_0# VSUBS
X0 a_138_0# a_38_n60# a_n84_0# VSUBS nfet_03v3 ad=0.61p pd=3.22u as=0.61p ps=3.22u w=1u l=0.5u
.ends

.subckt nfet$27 a_38_n60# a_n84_0# a_138_0# VSUBS
X0 a_138_0# a_38_n60# a_n84_0# VSUBS nfet_03v3 ad=0.61p pd=3.22u as=0.61p ps=3.22u w=1u l=0.5u
.ends

.subckt pfet$33 w_n180_n88# a_n92_0# a_138_0# a_38_n136#
X0 a_138_0# a_38_n136# a_n92_0# w_n180_n88# pfet_03v3 ad=1.95p pd=7.3u as=1.95p ps=7.3u w=3u l=0.5u
.ends

.subckt pfet$5 w_n180_n88# a_n92_0# a_138_0# a_38_n136#
X0 a_138_0# a_38_n136# a_n92_0# w_n180_n88# pfet_03v3 ad=1.95p pd=7.3u as=1.95p ps=7.3u w=3u l=0.5u
.ends

.subckt pfet$26 w_n180_n88# a_n92_0# a_138_0# a_38_n136#
X0 a_138_0# a_38_n136# a_n92_0# w_n180_n88# pfet_03v3 ad=1.95p pd=7.3u as=1.95p ps=7.3u w=3u l=0.5u
.ends

.subckt pfet$19 w_n180_n88# a_n92_0# a_138_0# a_38_n136#
X0 a_138_0# a_38_n136# a_n92_0# w_n180_n88# pfet_03v3 ad=1.95p pd=7.3u as=1.95p ps=7.3u w=3u l=0.5u
.ends

.subckt nfet$32 a_38_n60# a_n84_0# a_138_0# VSUBS
X0 a_138_0# a_38_n60# a_n84_0# VSUBS nfet_03v3 ad=0.61p pd=3.22u as=0.61p ps=3.22u w=1u l=0.5u
.ends

.subckt nfet$25 a_242_n60# a_38_n60# a_n84_0# a_342_0# a_138_0# VSUBS
X0 a_342_0# a_242_n60# a_138_0# VSUBS nfet_03v3 ad=0.61p pd=3.22u as=0.26p ps=1.52u w=1u l=0.5u
X1 a_138_0# a_38_n60# a_n84_0# VSUBS nfet_03v3 ad=0.26p pd=1.52u as=0.61p ps=3.22u w=1u l=0.5u
.ends

.subckt pfet$31 w_n180_n88# a_n92_0# a_138_0# a_38_n136#
X0 a_138_0# a_38_n136# a_n92_0# w_n180_n88# pfet_03v3 ad=1.95p pd=7.3u as=1.95p ps=7.3u w=3u l=0.5u
.ends

.subckt nfet$18 a_38_n60# a_n84_0# a_138_0# VSUBS
X0 a_138_0# a_38_n60# a_n84_0# VSUBS nfet_03v3 ad=0.61p pd=3.22u as=0.61p ps=3.22u w=1u l=0.5u
.ends

.subckt pfet$24 w_n180_n88# a_n92_0# a_138_0# a_38_n136#
X0 a_138_0# a_38_n136# a_n92_0# w_n180_n88# pfet_03v3 ad=1.95p pd=7.3u as=1.95p ps=7.3u w=3u l=0.5u
.ends

.subckt nfet$1 a_242_n60# a_38_n60# a_n84_0# a_342_0# a_138_0# VSUBS
X0 a_342_0# a_242_n60# a_138_0# VSUBS nfet_03v3 ad=0.61p pd=3.22u as=0.26p ps=1.52u w=1u l=0.5u
X1 a_138_0# a_38_n60# a_n84_0# VSUBS nfet_03v3 ad=0.26p pd=1.52u as=0.61p ps=3.22u w=1u l=0.5u
.ends

.subckt pfet$9 w_n180_n88# a_n92_0# a_138_0# a_38_n136#
X0 a_138_0# a_38_n136# a_n92_0# w_n180_n88# pfet_03v3 ad=1.95p pd=7.3u as=1.95p ps=7.3u w=3u l=0.5u
.ends

.subckt pfet$17 w_n180_n88# a_n92_0# a_138_0# a_38_n136#
X0 a_138_0# a_38_n136# a_n92_0# w_n180_n88# pfet_03v3 ad=1.95p pd=7.3u as=1.95p ps=7.3u w=3u l=0.5u
.ends

.subckt nfet$30 a_242_n60# a_38_n60# a_n84_0# a_342_0# a_138_0# VSUBS
X0 a_342_0# a_242_n60# a_138_0# VSUBS nfet_03v3 ad=0.61p pd=3.22u as=0.26p ps=1.52u w=1u l=0.5u
X1 a_138_0# a_38_n60# a_n84_0# VSUBS nfet_03v3 ad=0.26p pd=1.52u as=0.61p ps=3.22u w=1u l=0.5u
.ends

.subckt nfet$23 a_38_n60# a_n84_0# a_138_0# VSUBS
X0 a_138_0# a_38_n60# a_n84_0# VSUBS nfet_03v3 ad=0.61p pd=3.22u as=0.61p ps=3.22u w=1u l=0.5u
.ends

.subckt nfet$16 a_242_n60# a_38_n60# a_n84_0# a_342_0# a_138_0# VSUBS
X0 a_342_0# a_242_n60# a_138_0# VSUBS nfet_03v3 ad=0.61p pd=3.22u as=0.26p ps=1.52u w=1u l=0.5u
X1 a_138_0# a_38_n60# a_n84_0# VSUBS nfet_03v3 ad=0.26p pd=1.52u as=0.61p ps=3.22u w=1u l=0.5u
.ends

.subckt pfet$22 w_n180_n88# a_n92_0# a_342_0# a_138_0# a_38_n136# a_242_n136#
X0 a_342_0# a_242_n136# a_138_0# w_n180_n88# pfet_03v3 ad=1.95p pd=7.3u as=0.78p ps=3.52u w=3u l=0.5u
X1 a_138_0# a_38_n136# a_n92_0# w_n180_n88# pfet_03v3 ad=0.78p pd=3.52u as=1.95p ps=7.3u w=3u l=0.5u
.ends

.subckt pfet$15 w_n180_n88# a_n92_0# a_138_0# a_38_n136#
X0 a_138_0# a_38_n136# a_n92_0# w_n180_n88# pfet_03v3 ad=1.95p pd=7.3u as=1.95p ps=7.3u w=3u l=0.5u
.ends

.subckt nfet$14 a_242_n60# a_38_n60# a_n84_0# a_342_0# a_138_0# VSUBS
X0 a_342_0# a_242_n60# a_138_0# VSUBS nfet_03v3 ad=0.61p pd=3.22u as=0.26p ps=1.52u w=1u l=0.5u
X1 a_138_0# a_38_n60# a_n84_0# VSUBS nfet_03v3 ad=0.26p pd=1.52u as=0.61p ps=3.22u w=1u l=0.5u
.ends

.subckt pfet$20 w_n180_n88# a_n92_0# a_138_0# a_38_n136#
X0 a_138_0# a_38_n136# a_n92_0# w_n180_n88# pfet_03v3 ad=1.95p pd=7.3u as=1.95p ps=7.3u w=3u l=0.5u
.ends

.subckt nfet$8 a_38_n60# a_n84_0# a_138_0# VSUBS
X0 a_138_0# a_38_n60# a_n84_0# VSUBS nfet_03v3 ad=0.61p pd=3.22u as=0.61p ps=3.22u w=1u l=0.5u
.ends

.subckt pfet$13 w_n180_n88# a_n92_0# a_138_0# a_38_n136#
X0 a_138_0# a_38_n136# a_n92_0# w_n180_n88# pfet_03v3 ad=1.95p pd=7.3u as=1.95p ps=7.3u w=3u l=0.5u
.ends

.subckt nfet$37 a_38_n60# a_n84_0# a_138_0# VSUBS
X0 a_138_0# a_38_n60# a_n84_0# VSUBS nfet_03v3 ad=0.61p pd=3.22u as=0.61p ps=3.22u w=1u l=0.5u
.ends

.subckt nfet$12 a_38_n60# a_n84_0# a_138_0# VSUBS
X0 a_138_0# a_38_n60# a_n84_0# VSUBS nfet_03v3 ad=0.61p pd=3.22u as=0.61p ps=3.22u w=1u l=0.5u
.ends

.subckt pfet$29 w_n180_n88# a_n92_0# a_342_0# a_138_0# a_38_n136# a_242_n136#
X0 a_342_0# a_242_n136# a_138_0# w_n180_n88# pfet_03v3 ad=1.95p pd=7.3u as=0.78p ps=3.52u w=3u l=0.5u
X1 a_138_0# a_38_n136# a_n92_0# w_n180_n88# pfet_03v3 ad=0.78p pd=3.52u as=1.95p ps=7.3u w=3u l=0.5u
.ends

.subckt pfet$11 w_n180_n88# a_n92_0# a_342_0# a_138_0# a_38_n136# a_242_n136#
X0 a_342_0# a_242_n136# a_138_0# w_n180_n88# pfet_03v3 ad=1.95p pd=7.3u as=0.78p ps=3.52u w=3u l=0.5u
X1 a_138_0# a_38_n136# a_n92_0# w_n180_n88# pfet_03v3 ad=0.78p pd=3.52u as=1.95p ps=7.3u w=3u l=0.5u
.ends

.subckt nfet$35 a_242_n60# a_38_n60# a_n84_0# a_342_0# a_138_0# VSUBS
X0 a_342_0# a_242_n60# a_138_0# VSUBS nfet_03v3 ad=0.61p pd=3.22u as=0.26p ps=1.52u w=1u l=0.5u
X1 a_138_0# a_38_n60# a_n84_0# VSUBS nfet_03v3 ad=0.26p pd=1.52u as=0.61p ps=3.22u w=1u l=0.5u
.ends

.subckt nfet$33 a_38_n60# a_n84_0# a_138_0# VSUBS
X0 a_138_0# a_38_n60# a_n84_0# VSUBS nfet_03v3 ad=0.61p pd=3.22u as=0.61p ps=3.22u w=1u l=0.5u
.ends

.subckt nfet$26 a_242_n60# a_38_n60# a_n84_0# a_342_0# a_138_0# VSUBS
X0 a_342_0# a_242_n60# a_138_0# VSUBS nfet_03v3 ad=0.61p pd=3.22u as=0.26p ps=1.52u w=1u l=0.5u
X1 a_138_0# a_38_n60# a_n84_0# VSUBS nfet_03v3 ad=0.26p pd=1.52u as=0.61p ps=3.22u w=1u l=0.5u
.ends

.subckt pfet$32 w_n180_n88# a_n92_0# a_342_0# a_138_0# a_38_n136# a_242_n136#
X0 a_342_0# a_242_n136# a_138_0# w_n180_n88# pfet_03v3 ad=1.95p pd=7.3u as=0.78p ps=3.52u w=3u l=0.5u
X1 a_138_0# a_38_n136# a_n92_0# w_n180_n88# pfet_03v3 ad=0.78p pd=3.52u as=1.95p ps=7.3u w=3u l=0.5u
.ends

.subckt nfet$19 a_38_n60# a_n84_0# a_138_0# VSUBS
X0 a_138_0# a_38_n60# a_n84_0# VSUBS nfet_03v3 ad=0.61p pd=3.22u as=0.61p ps=3.22u w=1u l=0.5u
.ends

.subckt asc_dual_psd_def_20250809$5 vdd vss pd1 pd2 pd3 pd4 pd5 pd6 pd7 pd8 pd9 fout
+ sd1 sd2 sd3 sd4 sd5 sd6 sd7 sd8 sd9 fin define
Xnfet$4_5 m1_649_17714# m1_649_17714# vss vss m1_6971_20470# vss nfet$4
Xnfet$5_69 m1_17851_17714# vss m1_17381_17714# vss nfet$5
Xnfet$5_58 m1_23007_17836# m1_23930_15778# m1_23109_16202# vss nfet$5
Xnfet$5_47 m1_22034_17714# vss m1_22624_17518# vss nfet$5
Xnfet$10_6 m1_n910_23922# vss m1_n290_24224# vss nfet$10
Xnfet$5_25 m1_2092_17836# m1_3372_16080# m1_2905_18030# vss nfet$5
Xnfet$5_14 m1_6116_17343# m1_8172_15778# m1_7555_16080# vss nfet$5
Xnfet$5_36 m1_n3064_17714# vss m1_n2474_17518# vss nfet$5
Xpfet$30_0 vdd m1_n6380_21786# m1_n6380_21786# m1_n5019_19550# m1_n5227_20152# m1_n5227_20152#
+ pfet$30
Xnfet$2_2 m1_n7513_20152# vss m1_4509_24346# vss nfet$2
Xnfet$2_59 m1_19644_25858# m1_20268_25662# m1_20005_23922# vss nfet$2
Xnfet$2_48 m1_18073_21786# vss m1_23827_25858# vss nfet$2
Xnfet$2_37 m1_11039_21786# vss m1_15461_25858# vss nfet$2
Xnfet$2_26 m1_7095_25858# m1_9180_25658# m1_9973_24542# vss nfet$2
Xnfet$2_15 m1_7232_25662# m1_7456_23922# m1_7720_24542# vss nfet$2
Xpfet$4_31 vdd m1_n2543_20130# m1_n2543_20130# m1_20407_19850# m1_19969_19550# m1_19969_19550#
+ pfet$4
Xpfet$4_20 vdd m1_n3822_21786# m1_n3822_21786# m1_14009_19550# m1_9015_17714# m1_9015_17714#
+ pfet$4
Xpfet$3_9 vdd m1_3871_22513# m1_3871_22513# m1_3471_22402# m1_4005_21786# m1_4005_21786#
+ pfet$3
Xpfet$1_6 vdd vdd m1_3536_25662# m1_3394_25858# pfet$1
Xnfet$28_7 m1_n3822_21786# m1_n3822_21786# m1_n4485_21904# m1_n4485_21904# m1_n3724_21430#
+ vss nfet$28
Xpfet$1_65 vdd vdd m1_18073_21786# m1_20126_25858# pfet$1
Xpfet$1_54 vdd vdd m1_24808_24224# m1_24188_23922# pfet$1
Xpfet$1_43 vdd vdd m1_12805_21786# pd5 pfet$1
Xpfet$1_32 vdd vdd m1_7720_24542# m1_8076_24224# pfet$1
Xpfet$1_21 vdd m1_7456_23922# m1_7720_24542# m1_7095_25858# pfet$1
Xpfet$1_10 vdd m1_8076_24224# m1_9180_25658# m1_7095_25858# pfet$1
Xpfet$27_6 vdd vdd m1_n4623_25487# fin pfet$27
Xpfet$1_98 vdd m1_30095_25658# m1_30888_24542# m1_28147_25662# pfet$1
Xpfet$1_87 vdd vdd m1_28147_25662# m1_28010_25858# pfet$1
Xpfet$1_76 vdd m1_20005_23922# m1_20269_24542# m1_19644_25858# pfet$1
Xnfet$6_9 m1_23356_21786# vss m1_23486_21590# vss nfet$6
Xpfet$18_2 vdd m1_32818_21586# m1_32818_21586# m1_33050_22344# m1_30256_22102# m1_30256_22102#
+ pfet$18
Xnfet$17_0 m1_31535_22102# m1_32818_21586# vss vss nfet$17
Xnfet$24_1 m1_n6433_17343# m1_n4377_15778# m1_n4994_16080# vss nfet$24
Xnfet$31_2 m1_n10933_25858# m1_n10309_25662# m1_n10572_23922# vss nfet$31
Xpfet$25_3 vdd vdd m1_n3651_26174# m1_n3541_23922# pfet$25
Xnfet$4_6 m1_n1133_19550# m1_n1133_19550# vss vss m1_n695_20470# vss nfet$4
Xnfet$10_7 m1_25107_21786# vss m1_32193_25858# vss nfet$10
Xnfet$5_59 m1_17851_17714# vss m1_20721_15778# vss nfet$5
Xnfet$5_48 m1_18824_17836# m1_20104_16080# m1_19637_18030# vss nfet$5
Xnfet$5_26 m1_5302_17714# vss m1_5892_17518# vss nfet$5
Xnfet$5_15 m1_5302_17714# vss m1_8172_15778# vss nfet$5
Xnfet$5_37 m1_n7513_20152# vss m1_n2605_16080# vss nfet$5
Xpfet$30_1 vdd vdd vdd m1_n5019_22344# m1_n4485_21904# m1_n4485_21904# pfet$30
Xpfet$23_0 vdd m1_n10309_25662# m1_n10572_23922# m1_n10796_25662# pfet$23
Xnfet$2_3 m1_488_21786# vss m1_2912_25858# vss nfet$2
Xnfet$2_49 m1_19781_25662# m1_20005_23922# m1_20269_24542# vss nfet$2
Xnfet$2_38 m1_n7513_20152# vss m1_12875_24346# vss nfet$2
Xnfet$2_27 m1_7577_25858# vss m1_7719_25662# vss nfet$2
Xnfet$2_16 m1_4005_21786# vss m1_7095_25858# vss nfet$2
Xpfet$4_32 vdd m1_n2543_20130# m1_n2543_20130# m1_21043_19550# m1_17381_17714# m1_17381_17714#
+ pfet$4
Xpfet$4_21 vdd vdd vdd m1_13373_19850# m1_15171_20152# m1_15171_20152# pfet$4
Xpfet$4_10 vdd vdd vdd m1_9856_19850# m1_11654_20152# m1_11654_20152# pfet$4
Xpfet$8_0 vdd vdd m1_n7401_15478# sd9 pfet$8
Xnfet$28_8 m1_9624_19404# m1_9624_19404# vss vss m1_n3724_21430# vss nfet$28
Xpfet$1_7 vdd vdd m1_7232_25662# m1_7095_25858# pfet$1
Xpfet$1_99 vdd vdd m1_26705_24542# m1_24309_25858# pfet$1
Xpfet$1_88 vdd vdd m1_28634_25662# m1_28492_25858# pfet$1
Xpfet$1_77 vdd vdd m1_20269_24542# m1_20625_24224# pfet$1
Xpfet$1_66 vdd vdd m1_15461_25858# m1_11039_21786# pfet$1
Xpfet$1_55 vdd m1_24451_25662# m1_24188_23922# m1_23964_25662# pfet$1
Xpfet$1_44 vdd m1_15943_25858# vdd m1_17546_25658# pfet$1
Xpfet$1_33 vdd vdd m1_7522_21786# m1_7577_25858# pfet$1
Xpfet$1_22 vdd vdd m1_3537_24542# m1_3893_24224# pfet$1
Xpfet$1_11 vdd vdd m1_7719_25662# m1_7577_25858# pfet$1
Xpfet$27_7 vdd vdd m1_n3541_23922# m1_n3184_24224# pfet$27
Xnfet$24_2 m1_n6274_17836# m1_n5351_15778# m1_n6172_16202# vss nfet$24
Xnfet$31_3 m1_n10796_25662# m1_n9952_24224# m1_n8848_25658# vss nfet$31
Xpfet$25_4 vdd m1_n10452_25858# vdd m1_n4362_24346# pfet$25
Xnfet$4_7 m1_n7383_17599# m1_n7383_17599# vss vss m1_n63_20470# vss nfet$4
Xnfet$10_8 m1_32193_25858# vss m1_32330_25662# vss nfet$10
Xnfet$5_49 m1_21564_17714# vss m1_18665_17343# vss nfet$5
Xpfet$7_10 vdd vdd m1_29239_20152# m1_26063_15478# pfet$7
Xnfet$5_27 m1_1119_17714# vss m1_3989_15778# vss nfet$5
Xnfet$5_16 m1_6275_17836# m1_7198_15778# m1_6377_16202# vss nfet$5
Xnfet$5_38 m1_n2250_17343# m1_n1989_16202# m1_n2474_17518# vss nfet$5
Xpfet$16_0 vdd vdd vdd m1_36073_22344# define define pfet$16
Xpfet$30_2 vdd m1_n5764_21786# m1_n5764_21786# m1_n5019_22344# m1_n5227_21418# m1_n5227_21418#
+ pfet$30
Xpfet$23_1 vdd m1_n9952_24224# m1_n8848_25658# m1_n10933_25858# pfet$23
Xnfet$2_4 m1_2912_25858# vss m1_3049_25662# vss nfet$2
Xnfet$29_10 vss vss m1_n4978_24224# vss nfet$29
Xnfet$2_39 pd4 vss m1_9288_21786# vss nfet$2
Xpfet$4_33 vdd m1_n3206_20274# m1_n3206_20274# m1_24560_19550# m1_21564_17714# m1_21564_17714#
+ pfet$4
Xpfet$4_22 vdd vdd vdd m1_14009_19550# m1_9331_15478# m1_9331_15478# pfet$4
Xnfet$2_28 m1_3394_25858# vss m1_4005_21786# vss nfet$2
Xnfet$2_17 m1_11639_23922# vss m1_12259_24224# vss nfet$2
Xpfet$4_11 vdd vdd vdd m1_10492_19550# m1_5148_15478# m1_5148_15478# pfet$4
Xpfet$8_1 vdd vdd m1_21880_15478# sd2 pfet$8
Xnfet$28_9 m1_n6380_21786# m1_n6380_21786# m1_n6839_21786# m1_n6839_21786# m1_n6282_21430#
+ vss nfet$28
Xpfet$1_8 vdd vdd m1_8076_24224# m1_7456_23922# pfet$1
Xpfet$1_89 vdd vdd m1_19839_21786# pd7 pfet$1
Xpfet$1_78 vdd m1_20269_24542# vdd m1_21241_24346# pfet$1
Xpfet$1_67 vdd m1_15822_23922# m1_16086_24542# m1_15461_25858# pfet$1
Xpfet$1_56 vdd m1_24808_24224# m1_25912_25658# m1_23827_25858# pfet$1
Xpfet$1_45 vdd vdd m1_16442_24224# m1_15822_23922# pfet$1
Xpfet$1_34 vdd m1_9180_25658# m1_9973_24542# m1_7232_25662# pfet$1
Xpfet$1_23 vdd m1_3537_24542# vdd m1_4509_24346# pfet$1
Xpfet$1_12 vdd m1_7577_25858# vdd m1_9180_25658# pfet$1
Xpfet$27_8 vdd vdd m1_n2567_23922# m1_n7320_25516# pfet$27
Xpfet$25_5 vdd vdd m1_n10308_24542# m1_n9952_24224# pfet$25
Xnfet$4_8 m1_27003_19550# m1_27003_19550# vss vss m1_27441_20470# vss nfet$4
Xnfet$24_3 m1_n6433_17343# m1_n6172_16202# m1_n6657_17518# vss nfet$24
Xnfet$31_4 m1_n4623_25487# m1_n2567_23922# m1_n3184_24224# vss nfet$31
Xnfet$10_9 m1_n7513_20152# vss m1_33790_24346# vss nfet$10
Xnfet$5_28 m1_1933_17343# vss m1_2092_17836# vss nfet$5
Xnfet$5_17 m1_649_17714# vss m1_n2250_17343# vss nfet$5
Xnfet$5_39 m1_n3064_17714# vss m1_n3534_17714# vss nfet$5
Xpfet$16_1 vdd m1_35837_22102# m1_35837_22102# m1_36073_22344# fout fout pfet$16
Xpfet$7_11 vdd vdd m1_18688_20152# m1_13514_15478# pfet$7
Xnfet$22_0 m1_4620_20152# m1_4620_20152# m1_2590_19404# m1_2590_19404# m1_3454_20470#
+ vss nfet$22
Xpfet$23_2 vdd m1_n4362_24346# m1_n4847_25662# m1_n4464_25980# pfet$23
Xnfet$2_5 m1_2912_25858# m1_3536_25662# m1_3273_23922# vss nfet$2
Xnfet$29_11 m1_n10452_25858# vss m1_n4847_25662# vss nfet$29
Xnfet$2_29 m1_15943_25858# vss m1_14556_21786# vss nfet$2
Xpfet$4_34 vdd m1_n3206_20274# m1_n3206_20274# m1_23924_19850# m1_23486_19550# m1_23486_19550#
+ pfet$4
Xpfet$4_23 vdd vdd vdd m1_16890_19850# m1_18688_20152# m1_18688_20152# pfet$4
Xnfet$2_18 m1_7095_25858# vss m1_7232_25662# vss nfet$2
Xpfet$4_12 vdd m1_6107_19404# m1_6107_19404# m1_6975_19550# m1_649_17714# m1_649_17714#
+ pfet$4
Xpfet$8_2 vdd vdd m1_26063_15478# sd1 pfet$8
Xpfet$1_9 vdd m1_7719_25662# m1_7456_23922# m1_7232_25662# pfet$1
Xpfet$1_79 vdd m1_17546_25658# m1_18339_24542# m1_15598_25662# pfet$1
Xpfet$1_68 vdd vdd m1_16086_24542# m1_16442_24224# pfet$1
Xpfet$1_57 vdd vdd m1_24451_25662# m1_24309_25858# pfet$1
Xpfet$1_46 vdd m1_16442_24224# m1_17546_25658# m1_15461_25858# pfet$1
Xpfet$1_35 vdd m1_7720_24542# vdd m1_8692_24346# pfet$1
Xpfet$1_24 vdd vdd m1_5790_24542# m1_3394_25858# pfet$1
Xpfet$1_13 vdd vdd m1_12259_24224# m1_11639_23922# pfet$1
Xpfet$27_9 vdd vdd m1_n4464_25980# m1_n4623_25487# pfet$27
Xnfet$4_9 m1_25747_17714# m1_25747_17714# vss vss m1_28073_20470# vss nfet$4
Xnfet$24_4 m1_27031_17343# m1_27292_16202# m1_26807_17518# vss nfet$24
Xnfet$31_5 m1_n4464_25980# m1_n3541_23922# m1_n4362_24346# vss nfet$31
Xpfet$25_6 vdd m1_n10308_24542# vdd m1_n9336_24346# pfet$25
Xnfet$5_29 m1_3372_16080# vss m1_3015_15778# vss nfet$5
Xnfet$5_18 m1_1119_17714# vss m1_649_17714# vss nfet$5
Xpfet$7_12 vdd vdd m1_15171_20152# m1_9331_15478# pfet$7
Xnfet$22_1 m1_1103_20152# m1_1103_20152# m1_n927_19404# m1_n927_19404# m1_n63_20470#
+ vss nfet$22
Xpfet$23_3 vdd m1_n3184_24224# m1_n3651_26174# m1_n4623_25487# pfet$23
Xnfet$15_0 m1_21456_22513# m1_21456_22513# m1_30256_19792# m1_30256_19792# m1_30492_20470#
+ vss nfet$15
Xnfet$2_6 m1_3049_25662# m1_3893_24224# m1_4997_25658# vss nfet$2
Xnfet$29_12 m1_n10452_25858# vss m1_n5571_25662# vss nfet$29
Xpfet$21_0 vdd vdd m1_n7513_20152# m1_35837_22102# pfet$21
Xnfet$2_19 m1_7456_23922# vss m1_8076_24224# vss nfet$2
Xpfet$4_35 vdd m1_n3822_21786# m1_n3822_21786# m1_13373_19850# m1_12935_19550# m1_12935_19550#
+ pfet$4
Xpfet$4_24 vdd m1_n1927_20274# m1_n1927_20274# m1_16890_19850# m1_16452_19550# m1_16452_19550#
+ pfet$4
Xpfet$4_13 vdd m1_n927_19404# m1_n927_19404# m1_n695_19850# m1_n1133_19550# m1_n1133_19550#
+ pfet$4
Xpfet$6_0 vdd vdd m1_n6274_17836# m1_n6433_17343# pfet$6