* NGSPICE file created from top_level_20250912_nosc.ext - technology: gf180mcuD

.subckt pfet a_1158_0# a_750_0# a_1058_n136# a_546_0# a_1262_n136# a_1566_0# a_954_0#
+ w_n180_n88# a_854_n136# a_n92_0# a_446_n136# a_650_n136# a_342_0# a_1466_n136# a_138_0#
+ a_38_n136# a_1362_0# a_242_n136#
X0 a_1362_0# a_1262_n136# a_1158_0# w_n180_n88# pfet_03v3 ad=3.12p pd=12.52u as=3.12p ps=12.52u w=12u l=0.5u
X1 a_954_0# a_854_n136# a_750_0# w_n180_n88# pfet_03v3 ad=3.12p pd=12.52u as=3.12p ps=12.52u w=12u l=0.5u
X2 a_1566_0# a_1466_n136# a_1362_0# w_n180_n88# pfet_03v3 ad=7.8p pd=25.3u as=3.12p ps=12.52u w=12u l=0.5u
X3 a_342_0# a_242_n136# a_138_0# w_n180_n88# pfet_03v3 ad=3.12p pd=12.52u as=3.12p ps=12.52u w=12u l=0.5u
X4 a_546_0# a_446_n136# a_342_0# w_n180_n88# pfet_03v3 ad=3.12p pd=12.52u as=3.12p ps=12.52u w=12u l=0.5u
X5 a_1158_0# a_1058_n136# a_954_0# w_n180_n88# pfet_03v3 ad=3.12p pd=12.52u as=3.12p ps=12.52u w=12u l=0.5u
X6 a_138_0# a_38_n136# a_n92_0# w_n180_n88# pfet_03v3 ad=3.12p pd=12.52u as=7.8p ps=25.3u w=12u l=0.5u
X7 a_750_0# a_650_n136# a_546_0# w_n180_n88# pfet_03v3 ad=3.12p pd=12.52u as=3.12p ps=12.52u w=12u l=0.5u
.ends

.subckt pfet$178 w_n180_n88# a_n92_0# a_138_0# a_38_n136#
X0 a_138_0# a_38_n136# a_n92_0# w_n180_n88# pfet_03v3 ad=7.8p pd=25.3u as=7.8p ps=25.3u w=12u l=0.5u
.ends

.subckt nfet$191 a_38_n60# a_n84_0# a_138_0# VSUBS
X0 a_138_0# a_38_n60# a_n84_0# VSUBS nfet_03v3 ad=0.61p pd=3.22u as=0.61p ps=3.22u w=1u l=0.5u
.ends

.subckt nfet$189 a_1158_0# a_750_0# a_546_0# a_446_n60# a_242_n60# a_1566_0# a_954_0#
+ a_1466_n60# a_1262_n60# a_38_n60# a_n84_0# a_1058_n60# a_854_n60# a_342_0# a_138_0#
+ a_650_n60# a_1362_0# VSUBS
X0 a_954_0# a_854_n60# a_750_0# VSUBS nfet_03v3 ad=1.04p pd=4.52u as=1.04p ps=4.52u w=4u l=0.5u
X1 a_1566_0# a_1466_n60# a_1362_0# VSUBS nfet_03v3 ad=2.44p pd=9.22u as=1.04p ps=4.52u w=4u l=0.5u
X2 a_342_0# a_242_n60# a_138_0# VSUBS nfet_03v3 ad=1.04p pd=4.52u as=1.04p ps=4.52u w=4u l=0.5u
X3 a_546_0# a_446_n60# a_342_0# VSUBS nfet_03v3 ad=1.04p pd=4.52u as=1.04p ps=4.52u w=4u l=0.5u
X4 a_1158_0# a_1058_n60# a_954_0# VSUBS nfet_03v3 ad=1.04p pd=4.52u as=1.04p ps=4.52u w=4u l=0.5u
X5 a_138_0# a_38_n60# a_n84_0# VSUBS nfet_03v3 ad=1.04p pd=4.52u as=2.44p ps=9.22u w=4u l=0.5u
X6 a_750_0# a_650_n60# a_546_0# VSUBS nfet_03v3 ad=1.04p pd=4.52u as=1.04p ps=4.52u w=4u l=0.5u
X7 a_1362_0# a_1262_n60# a_1158_0# VSUBS nfet_03v3 ad=1.04p pd=4.52u as=1.04p ps=4.52u w=4u l=0.5u
.ends

.subckt pfet$179 w_n180_n88# a_n92_0# a_138_0# a_38_n136#
X0 a_138_0# a_38_n136# a_n92_0# w_n180_n88# pfet_03v3 ad=1.95p pd=7.3u as=1.95p ps=7.3u w=3u l=0.5u
.ends

.subckt pfet$177 a_750_0# a_546_0# w_n180_n88# a_n92_0# a_446_n136# a_650_n136# a_342_0#
+ a_138_0# a_38_n136# a_242_n136#
X0 a_342_0# a_242_n136# a_138_0# w_n180_n88# pfet_03v3 ad=3.12p pd=12.52u as=3.12p ps=12.52u w=12u l=0.5u
X1 a_546_0# a_446_n136# a_342_0# w_n180_n88# pfet_03v3 ad=3.12p pd=12.52u as=3.12p ps=12.52u w=12u l=0.5u
X2 a_138_0# a_38_n136# a_n92_0# w_n180_n88# pfet_03v3 ad=3.12p pd=12.52u as=7.8p ps=25.3u w=12u l=0.5u
X3 a_750_0# a_650_n136# a_546_0# w_n180_n88# pfet_03v3 ad=7.8p pd=25.3u as=3.12p ps=12.52u w=12u l=0.5u
.ends

.subckt nfet$192 a_38_n60# a_n84_0# a_138_0# VSUBS
X0 a_138_0# a_38_n60# a_n84_0# VSUBS nfet_03v3 ad=0.61p pd=3.22u as=0.61p ps=3.22u w=1u l=0.5u
.ends

.subckt nfet a_750_0# a_546_0# a_446_n60# a_242_n60# a_38_n60# a_n84_0# a_342_0# a_138_0#
+ a_650_n60# VSUBS
X0 a_342_0# a_242_n60# a_138_0# VSUBS nfet_03v3 ad=1.04p pd=4.52u as=1.04p ps=4.52u w=4u l=0.5u
X1 a_546_0# a_446_n60# a_342_0# VSUBS nfet_03v3 ad=1.04p pd=4.52u as=1.04p ps=4.52u w=4u l=0.5u
X2 a_138_0# a_38_n60# a_n84_0# VSUBS nfet_03v3 ad=1.04p pd=4.52u as=2.44p ps=9.22u w=4u l=0.5u
X3 a_750_0# a_650_n60# a_546_0# VSUBS nfet_03v3 ad=2.44p pd=9.22u as=1.04p ps=4.52u w=4u l=0.5u
.ends

.subckt nfet$190 a_38_n60# a_n84_0# a_138_0# VSUBS
X0 a_138_0# a_38_n60# a_n84_0# VSUBS nfet_03v3 ad=2.44p pd=9.22u as=2.44p ps=9.22u w=4u l=0.5u
.ends

.subckt pfet$180 w_n180_n88# a_n92_0# a_138_0# a_38_n136#
X0 a_138_0# a_38_n136# a_n92_0# w_n180_n88# pfet_03v3 ad=1.95p pd=7.3u as=1.95p ps=7.3u w=3u l=0.5u
.ends

.subckt asc_drive_buffer_up vss out in vdd
Xpfet_0 out out m1_778_712# vdd m1_778_712# out vdd vdd m1_778_712# out m1_778_712#
+ m1_778_712# out m1_778_712# vdd m1_778_712# vdd m1_778_712# pfet
Xpfet$178_0 vdd vdd m1_506_712# m1_n30_1318# pfet$178
Xnfet$191_0 m1_n566_1318# vss m1_n30_1318# vss nfet$191
Xnfet$189_0 out out vss m1_778_712# m1_778_712# out vss m1_778_712# m1_778_712# m1_778_712#
+ out m1_778_712# m1_778_712# out vss m1_778_712# vss vss nfet$189
Xpfet$179_0 vdd vdd m1_n30_1318# m1_n566_1318# pfet$179
Xpfet$177_0 m1_778_712# vdd vdd m1_778_712# m1_506_712# m1_506_712# m1_778_712# vdd
+ m1_506_712# m1_506_712# pfet$177
Xnfet$192_0 in vss m1_n566_1318# vss nfet$192
Xnfet_0 m1_778_712# vss m1_506_712# m1_506_712# m1_506_712# m1_778_712# m1_778_712#
+ vss m1_506_712# vss nfet
Xnfet$190_0 m1_n30_1318# vss m1_506_712# vss nfet$190
Xpfet$180_0 vdd vdd m1_n566_1318# in pfet$180
.ends

.subckt pfet$185 w_n180_n88# a_n92_0# a_138_0# a_38_n136#
X0 a_138_0# a_38_n136# a_n92_0# w_n180_n88# pfet_03v3 ad=1.95p pd=7.3u as=1.95p ps=7.3u w=3u l=0.5u
.ends

.subckt pfet$182 w_n180_n88# a_n92_0# a_138_0# a_38_n136#
X0 a_138_0# a_38_n136# a_n92_0# w_n180_n88# pfet_03v3 ad=1.95p pd=7.3u as=1.95p ps=7.3u w=3u l=0.5u
.ends

.subckt pfet$189 w_n180_n88# a_n92_0# a_138_0# a_38_n136#
X0 a_138_0# a_38_n136# a_n92_0# w_n180_n88# pfet_03v3 ad=1.95p pd=7.3u as=1.95p ps=7.3u w=3u l=0.5u
.ends

.subckt nfet$197 a_38_n60# a_n84_0# a_138_0# VSUBS
X0 a_138_0# a_38_n60# a_n84_0# VSUBS nfet_03v3 ad=0.61p pd=3.22u as=0.61p ps=3.22u w=1u l=0.5u
.ends

.subckt nfet$198 a_38_n60# a_n84_0# a_138_0# VSUBS
X0 a_138_0# a_38_n60# a_n84_0# VSUBS nfet_03v3 ad=0.61p pd=3.22u as=0.61p ps=3.22u w=1u l=0.5u
.ends

.subckt nfet$217 a_242_n60# a_38_n60# a_n84_0# a_342_0# a_138_0# VSUBS
X0 a_342_0# a_242_n60# a_138_0# VSUBS nfet_03v3 ad=0.61p pd=3.22u as=0.26p ps=1.52u w=1u l=0.5u
X1 a_138_0# a_38_n60# a_n84_0# VSUBS nfet_03v3 ad=0.26p pd=1.52u as=0.61p ps=3.22u w=1u l=0.5u
.ends

.subckt nfet$195 a_242_n60# a_38_n60# a_n84_0# a_342_0# a_138_0# VSUBS
X0 a_342_0# a_242_n60# a_138_0# VSUBS nfet_03v3 ad=0.61p pd=3.22u as=0.26p ps=1.52u w=1u l=0.5u
X1 a_138_0# a_38_n60# a_n84_0# VSUBS nfet_03v3 ad=0.26p pd=1.52u as=0.61p ps=3.22u w=1u l=0.5u
.ends

.subckt pfet$187 w_n180_n88# a_n92_0# a_138_0# a_38_n136#
X0 a_138_0# a_38_n136# a_n92_0# w_n180_n88# pfet_03v3 ad=1.95p pd=7.3u as=1.95p ps=7.3u w=3u l=0.5u
.ends

.subckt nfet$222 a_242_n60# a_38_n60# a_n84_0# a_342_0# a_138_0# VSUBS
X0 a_342_0# a_242_n60# a_138_0# VSUBS nfet_03v3 ad=0.61p pd=3.22u as=0.26p ps=1.52u w=1u l=0.5u
X1 a_138_0# a_38_n60# a_n84_0# VSUBS nfet_03v3 ad=0.26p pd=1.52u as=0.61p ps=3.22u w=1u l=0.5u
.ends

.subckt nfet$208 a_242_n60# a_38_n60# a_n84_0# a_342_0# a_138_0# VSUBS
X0 a_342_0# a_242_n60# a_138_0# VSUBS nfet_03v3 ad=0.61p pd=3.22u as=0.26p ps=1.52u w=1u l=0.5u
X1 a_138_0# a_38_n60# a_n84_0# VSUBS nfet_03v3 ad=0.26p pd=1.52u as=0.61p ps=3.22u w=1u l=0.5u
.ends

.subckt pfet$207 w_n180_n88# a_n92_0# a_138_0# a_38_n136#
X0 a_138_0# a_38_n136# a_n92_0# w_n180_n88# pfet_03v3 ad=1.95p pd=7.3u as=1.95p ps=7.3u w=3u l=0.5u
.ends

.subckt pfet$192 w_n180_n88# a_n92_0# a_138_0# a_38_n136#
X0 a_138_0# a_38_n136# a_n92_0# w_n180_n88# pfet_03v3 ad=1.95p pd=7.3u as=1.95p ps=7.3u w=3u l=0.5u
.ends

.subckt nfet$201 a_38_n60# a_n84_0# a_138_0# VSUBS
X0 a_138_0# a_38_n60# a_n84_0# VSUBS nfet_03v3 ad=0.61p pd=3.22u as=0.61p ps=3.22u w=1u l=0.5u
.ends

.subckt nfet$213 a_242_n60# a_38_n60# a_n84_0# a_342_0# a_138_0# VSUBS
X0 a_342_0# a_242_n60# a_138_0# VSUBS nfet_03v3 ad=0.61p pd=3.22u as=0.26p ps=1.52u w=1u l=0.5u
X1 a_138_0# a_38_n60# a_n84_0# VSUBS nfet_03v3 ad=0.26p pd=1.52u as=0.61p ps=3.22u w=1u l=0.5u
.ends

.subckt nfet$220 a_242_n60# a_38_n60# a_n84_0# a_342_0# a_138_0# VSUBS
X0 a_342_0# a_242_n60# a_138_0# VSUBS nfet_03v3 ad=0.61p pd=3.22u as=0.26p ps=1.52u w=1u l=0.5u
X1 a_138_0# a_38_n60# a_n84_0# VSUBS nfet_03v3 ad=0.26p pd=1.52u as=0.61p ps=3.22u w=1u l=0.5u
.ends

.subckt pfet$205 w_n180_n88# a_n92_0# a_138_0# a_38_n136#
X0 a_138_0# a_38_n136# a_n92_0# w_n180_n88# pfet_03v3 ad=1.95p pd=7.3u as=1.95p ps=7.3u w=3u l=0.5u
.ends

.subckt nfet$199 a_38_n60# a_n84_0# a_138_0# VSUBS
X0 a_138_0# a_38_n60# a_n84_0# VSUBS nfet_03v3 ad=0.61p pd=3.22u as=0.61p ps=3.22u w=1u l=0.5u
.ends

.subckt nfet$193 a_242_n60# a_38_n60# a_n84_0# a_342_0# a_138_0# VSUBS
X0 a_342_0# a_242_n60# a_138_0# VSUBS nfet_03v3 ad=0.61p pd=3.22u as=0.26p ps=1.52u w=1u l=0.5u
X1 a_138_0# a_38_n60# a_n84_0# VSUBS nfet_03v3 ad=0.26p pd=1.52u as=0.61p ps=3.22u w=1u l=0.5u
.ends

.subckt nfet$206 a_242_n60# a_38_n60# a_n84_0# a_342_0# a_138_0# VSUBS
X0 a_342_0# a_242_n60# a_138_0# VSUBS nfet_03v3 ad=0.61p pd=3.22u as=0.26p ps=1.52u w=1u l=0.5u
X1 a_138_0# a_38_n60# a_n84_0# VSUBS nfet_03v3 ad=0.26p pd=1.52u as=0.61p ps=3.22u w=1u l=0.5u
.ends

.subckt pfet$210 w_n180_n88# a_n92_0# a_342_0# a_138_0# a_38_n136# a_242_n136#
X0 a_342_0# a_242_n136# a_138_0# w_n180_n88# pfet_03v3 ad=1.95p pd=7.3u as=0.78p ps=3.52u w=3u l=0.5u
X1 a_138_0# a_38_n136# a_n92_0# w_n180_n88# pfet_03v3 ad=0.78p pd=3.52u as=1.95p ps=7.3u w=3u l=0.5u
.ends

.subckt pfet$181 w_n180_n88# a_n92_0# a_138_0# a_38_n136#
X0 a_138_0# a_38_n136# a_n92_0# w_n180_n88# pfet_03v3 ad=1.95p pd=7.3u as=1.95p ps=7.3u w=3u l=0.5u
.ends

.subckt pfet$183 w_n180_n88# a_n92_0# a_342_0# a_138_0# a_38_n136# a_242_n136#
X0 a_342_0# a_242_n136# a_138_0# w_n180_n88# pfet_03v3 ad=1.95p pd=7.3u as=0.78p ps=3.52u w=3u l=0.5u
X1 a_138_0# a_38_n136# a_n92_0# w_n180_n88# pfet_03v3 ad=0.78p pd=3.52u as=1.95p ps=7.3u w=3u l=0.5u
.ends

.subckt pfet$190 w_n180_n88# a_n92_0# a_138_0# a_38_n136#
X0 a_138_0# a_38_n136# a_n92_0# w_n180_n88# pfet_03v3 ad=1.95p pd=7.3u as=1.95p ps=7.3u w=3u l=0.5u
.ends

.subckt pfet$203 w_n180_n88# a_n92_0# a_138_0# a_38_n136#
X0 a_138_0# a_38_n136# a_n92_0# w_n180_n88# pfet_03v3 ad=1.95p pd=7.3u as=1.95p ps=7.3u w=3u l=0.5u
.ends

.subckt nfet$229 a_38_n60# a_n84_0# a_138_0# VSUBS
X0 a_138_0# a_38_n60# a_n84_0# VSUBS nfet_03v3 ad=0.61p pd=3.22u as=0.61p ps=3.22u w=1u l=0.5u
.ends

.subckt nfet$211 a_38_n60# a_n84_0# a_138_0# VSUBS
X0 a_138_0# a_38_n60# a_n84_0# VSUBS nfet_03v3 ad=0.61p pd=3.22u as=0.61p ps=3.22u w=1u l=0.5u
.ends

.subckt nfet$204 a_38_n60# a_n84_0# a_138_0# VSUBS
X0 a_138_0# a_38_n60# a_n84_0# VSUBS nfet_03v3 ad=0.61p pd=3.22u as=0.61p ps=3.22u w=1u l=0.5u
.ends

.subckt pfet$186 w_n180_n88# a_n92_0# a_138_0# a_38_n136#
X0 a_138_0# a_38_n136# a_n92_0# w_n180_n88# pfet_03v3 ad=1.95p pd=7.3u as=1.95p ps=7.3u w=3u l=0.5u
.ends

.subckt pfet$201 w_n180_n88# a_n92_0# a_138_0# a_38_n136#
X0 a_138_0# a_38_n136# a_n92_0# w_n180_n88# pfet_03v3 ad=1.95p pd=7.3u as=1.95p ps=7.3u w=3u l=0.5u
.ends

.subckt pfet$199 w_n180_n88# a_n92_0# a_138_0# a_38_n136#
X0 a_138_0# a_38_n136# a_n92_0# w_n180_n88# pfet_03v3 ad=1.95p pd=7.3u as=1.95p ps=7.3u w=3u l=0.5u
.ends

.subckt nfet$227 a_242_n60# a_38_n60# a_n84_0# a_342_0# a_138_0# VSUBS
X0 a_342_0# a_242_n60# a_138_0# VSUBS nfet_03v3 ad=0.61p pd=3.22u as=0.26p ps=1.52u w=1u l=0.5u
X1 a_138_0# a_38_n60# a_n84_0# VSUBS nfet_03v3 ad=0.26p pd=1.52u as=0.61p ps=3.22u w=1u l=0.5u
.ends

.subckt nfet$202 a_38_n60# a_n84_0# a_138_0# VSUBS
X0 a_138_0# a_38_n60# a_n84_0# VSUBS nfet_03v3 ad=0.61p pd=3.22u as=0.61p ps=3.22u w=1u l=0.5u
.ends

.subckt pfet$197 w_n180_n88# a_n92_0# a_138_0# a_38_n136#
X0 a_138_0# a_38_n136# a_n92_0# w_n180_n88# pfet_03v3 ad=1.95p pd=7.3u as=1.95p ps=7.3u w=3u l=0.5u
.ends

.subckt nfet$225 a_38_n60# a_n84_0# a_138_0# VSUBS
X0 a_138_0# a_38_n60# a_n84_0# VSUBS nfet_03v3 ad=0.61p pd=3.22u as=0.61p ps=3.22u w=1u l=0.5u
.ends

.subckt nfet$218 a_242_n60# a_38_n60# a_n84_0# a_342_0# a_138_0# VSUBS
X0 a_342_0# a_242_n60# a_138_0# VSUBS nfet_03v3 ad=0.61p pd=3.22u as=0.26p ps=1.52u w=1u l=0.5u
X1 a_138_0# a_38_n60# a_n84_0# VSUBS nfet_03v3 ad=0.26p pd=1.52u as=0.61p ps=3.22u w=1u l=0.5u
.ends

.subckt nfet$200 a_38_n60# a_n84_0# a_138_0# VSUBS
X0 a_138_0# a_38_n60# a_n84_0# VSUBS nfet_03v3 ad=0.61p pd=3.22u as=0.61p ps=3.22u w=1u l=0.5u
.ends

.subckt nfet$196 a_242_n60# a_38_n60# a_n84_0# a_342_0# a_138_0# VSUBS
X0 a_342_0# a_242_n60# a_138_0# VSUBS nfet_03v3 ad=0.61p pd=3.22u as=0.26p ps=1.52u w=1u l=0.5u
X1 a_138_0# a_38_n60# a_n84_0# VSUBS nfet_03v3 ad=0.26p pd=1.52u as=0.61p ps=3.22u w=1u l=0.5u
.ends

.subckt pfet$195 w_n180_n88# a_n92_0# a_138_0# a_38_n136#
X0 a_138_0# a_38_n136# a_n92_0# w_n180_n88# pfet_03v3 ad=1.95p pd=7.3u as=1.95p ps=7.3u w=3u l=0.5u
.ends

.subckt nfet$223 a_38_n60# a_n84_0# a_138_0# VSUBS
X0 a_138_0# a_38_n60# a_n84_0# VSUBS nfet_03v3 ad=0.61p pd=3.22u as=0.61p ps=3.22u w=1u l=0.5u
.ends

.subckt pfet$208 w_n180_n88# a_n92_0# a_138_0# a_38_n136#
X0 a_138_0# a_38_n136# a_n92_0# w_n180_n88# pfet_03v3 ad=1.95p pd=7.3u as=1.95p ps=7.3u w=3u l=0.5u
.ends

.subckt pfet$188 w_n180_n88# a_n92_0# a_138_0# a_38_n136#
X0 a_138_0# a_38_n136# a_n92_0# w_n180_n88# pfet_03v3 ad=1.95p pd=7.3u as=1.95p ps=7.3u w=3u l=0.5u
.ends

.subckt nfet$216 a_38_n60# a_n84_0# a_138_0# VSUBS
X0 a_138_0# a_38_n60# a_n84_0# VSUBS nfet_03v3 ad=0.61p pd=3.22u as=0.61p ps=3.22u w=1u l=0.5u
.ends

.subckt nfet$209 a_38_n60# a_n84_0# a_138_0# VSUBS
X0 a_138_0# a_38_n60# a_n84_0# VSUBS nfet_03v3 ad=0.61p pd=3.22u as=0.61p ps=3.22u w=1u l=0.5u
.ends

.subckt pfet$184 w_n180_n88# a_n92_0# a_342_0# a_138_0# a_38_n136# a_242_n136#
X0 a_342_0# a_242_n136# a_138_0# w_n180_n88# pfet_03v3 ad=1.95p pd=7.3u as=0.78p ps=3.52u w=3u l=0.5u
X1 a_138_0# a_38_n136# a_n92_0# w_n180_n88# pfet_03v3 ad=0.78p pd=3.52u as=1.95p ps=7.3u w=3u l=0.5u
.ends

.subckt pfet$213 w_n180_n88# a_n92_0# a_138_0# a_38_n136#
X0 a_138_0# a_38_n136# a_n92_0# w_n180_n88# pfet_03v3 ad=1.95p pd=7.3u as=1.95p ps=7.3u w=3u l=0.5u
.ends

.subckt pfet$193 w_n180_n88# a_n92_0# a_138_0# a_38_n136#
X0 a_138_0# a_38_n136# a_n92_0# w_n180_n88# pfet_03v3 ad=1.95p pd=7.3u as=1.95p ps=7.3u w=3u l=0.5u
.ends

.subckt nfet$221 a_38_n60# a_n84_0# a_138_0# VSUBS
X0 a_138_0# a_38_n60# a_n84_0# VSUBS nfet_03v3 ad=0.61p pd=3.22u as=0.61p ps=3.22u w=1u l=0.5u
.ends

.subckt pfet$206 w_n180_n88# a_n92_0# a_138_0# a_38_n136#
X0 a_138_0# a_38_n136# a_n92_0# w_n180_n88# pfet_03v3 ad=1.95p pd=7.3u as=1.95p ps=7.3u w=3u l=0.5u
.ends

.subckt nfet$194 a_38_n60# a_n84_0# a_138_0# VSUBS
X0 a_138_0# a_38_n60# a_n84_0# VSUBS nfet_03v3 ad=0.61p pd=3.22u as=0.61p ps=3.22u w=1u l=0.5u
.ends

.subckt nfet$214 a_242_n60# a_38_n60# a_n84_0# a_342_0# a_138_0# VSUBS
X0 a_342_0# a_242_n60# a_138_0# VSUBS nfet_03v3 ad=0.61p pd=3.22u as=0.26p ps=1.52u w=1u l=0.5u
X1 a_138_0# a_38_n60# a_n84_0# VSUBS nfet_03v3 ad=0.26p pd=1.52u as=0.61p ps=3.22u w=1u l=0.5u
.ends

.subckt nfet$207 a_242_n60# a_38_n60# a_n84_0# a_342_0# a_138_0# VSUBS
X0 a_342_0# a_242_n60# a_138_0# VSUBS nfet_03v3 ad=0.61p pd=3.22u as=0.26p ps=1.52u w=1u l=0.5u
X1 a_138_0# a_38_n60# a_n84_0# VSUBS nfet_03v3 ad=0.26p pd=1.52u as=0.61p ps=3.22u w=1u l=0.5u
.ends

.subckt pfet$211 w_n180_n88# a_n92_0# a_138_0# a_38_n136#
X0 a_138_0# a_38_n136# a_n92_0# w_n180_n88# pfet_03v3 ad=1.95p pd=7.3u as=1.95p ps=7.3u w=3u l=0.5u
.ends

.subckt pfet$191 w_n180_n88# a_n92_0# a_342_0# a_138_0# a_38_n136# a_242_n136#
X0 a_342_0# a_242_n136# a_138_0# w_n180_n88# pfet_03v3 ad=1.95p pd=7.3u as=0.78p ps=3.52u w=3u l=0.5u
X1 a_138_0# a_38_n136# a_n92_0# w_n180_n88# pfet_03v3 ad=0.78p pd=3.52u as=1.95p ps=7.3u w=3u l=0.5u
.ends

.subckt pfet$204 w_n180_n88# a_n92_0# a_138_0# a_38_n136#
X0 a_138_0# a_38_n136# a_n92_0# w_n180_n88# pfet_03v3 ad=1.95p pd=7.3u as=1.95p ps=7.3u w=3u l=0.5u
.ends

.subckt nfet$212 a_38_n60# a_n84_0# a_138_0# VSUBS
X0 a_138_0# a_38_n60# a_n84_0# VSUBS nfet_03v3 ad=0.61p pd=3.22u as=0.61p ps=3.22u w=1u l=0.5u
.ends

.subckt nfet$205 a_242_n60# a_38_n60# a_n84_0# a_342_0# a_138_0# VSUBS
X0 a_342_0# a_242_n60# a_138_0# VSUBS nfet_03v3 ad=0.61p pd=3.22u as=0.26p ps=1.52u w=1u l=0.5u
X1 a_138_0# a_38_n60# a_n84_0# VSUBS nfet_03v3 ad=0.26p pd=1.52u as=0.61p ps=3.22u w=1u l=0.5u
.ends

.subckt pfet$202 w_n180_n88# a_n92_0# a_342_0# a_138_0# a_38_n136# a_242_n136#
X0 a_342_0# a_242_n136# a_138_0# w_n180_n88# pfet_03v3 ad=1.95p pd=7.3u as=0.78p ps=3.52u w=3u l=0.5u
X1 a_138_0# a_38_n136# a_n92_0# w_n180_n88# pfet_03v3 ad=0.78p pd=3.52u as=1.95p ps=7.3u w=3u l=0.5u
.ends

.subckt nfet$228 a_38_n60# a_n84_0# a_138_0# VSUBS
X0 a_138_0# a_38_n60# a_n84_0# VSUBS nfet_03v3 ad=0.61p pd=3.22u as=0.61p ps=3.22u w=1u l=0.5u
.ends

.subckt nfet$210 a_38_n60# a_n84_0# a_138_0# VSUBS
X0 a_138_0# a_38_n60# a_n84_0# VSUBS nfet_03v3 ad=0.61p pd=3.22u as=0.61p ps=3.22u w=1u l=0.5u
.ends

.subckt nfet$203 a_38_n60# a_n84_0# a_138_0# VSUBS
X0 a_138_0# a_38_n60# a_n84_0# VSUBS nfet_03v3 ad=0.61p pd=3.22u as=0.61p ps=3.22u w=1u l=0.5u
.ends

.subckt pfet$200 w_n180_n88# a_n92_0# a_138_0# a_38_n136#
X0 a_138_0# a_38_n136# a_n92_0# w_n180_n88# pfet_03v3 ad=1.95p pd=7.3u as=1.95p ps=7.3u w=3u l=0.5u
.ends

.subckt pfet$198 w_n180_n88# a_n92_0# a_342_0# a_138_0# a_38_n136# a_242_n136#
X0 a_342_0# a_242_n136# a_138_0# w_n180_n88# pfet_03v3 ad=1.95p pd=7.3u as=0.78p ps=3.52u w=3u l=0.5u
X1 a_138_0# a_38_n136# a_n92_0# w_n180_n88# pfet_03v3 ad=0.78p pd=3.52u as=1.95p ps=7.3u w=3u l=0.5u
.ends

.subckt nfet$226 a_38_n60# a_n84_0# a_138_0# VSUBS
X0 a_138_0# a_38_n60# a_n84_0# VSUBS nfet_03v3 ad=0.61p pd=3.22u as=0.61p ps=3.22u w=1u l=0.5u
.ends

.subckt nfet$219 a_38_n60# a_n84_0# a_138_0# VSUBS
X0 a_138_0# a_38_n60# a_n84_0# VSUBS nfet_03v3 ad=0.61p pd=3.22u as=0.61p ps=3.22u w=1u l=0.5u
.ends

.subckt pfet$196 w_n180_n88# a_n92_0# a_342_0# a_138_0# a_38_n136# a_242_n136#
X0 a_342_0# a_242_n136# a_138_0# w_n180_n88# pfet_03v3 ad=1.95p pd=7.3u as=0.78p ps=3.52u w=3u l=0.5u
X1 a_138_0# a_38_n136# a_n92_0# w_n180_n88# pfet_03v3 ad=0.78p pd=3.52u as=1.95p ps=7.3u w=3u l=0.5u
.ends

.subckt nfet$224 a_38_n60# a_n84_0# a_138_0# VSUBS
X0 a_138_0# a_38_n60# a_n84_0# VSUBS nfet_03v3 ad=0.61p pd=3.22u as=0.61p ps=3.22u w=1u l=0.5u
.ends

.subckt pfet$209 w_n180_n88# a_n92_0# a_342_0# a_138_0# a_38_n136# a_242_n136#
X0 a_342_0# a_242_n136# a_138_0# w_n180_n88# pfet_03v3 ad=1.95p pd=7.3u as=0.78p ps=3.52u w=3u l=0.5u
X1 a_138_0# a_38_n136# a_n92_0# w_n180_n88# pfet_03v3 ad=0.78p pd=3.52u as=1.95p ps=7.3u w=3u l=0.5u
.ends

.subckt pfet$194 w_n180_n88# a_n92_0# a_138_0# a_38_n136#
X0 a_138_0# a_38_n136# a_n92_0# w_n180_n88# pfet_03v3 ad=1.95p pd=7.3u as=1.95p ps=7.3u w=3u l=0.5u
.ends

.subckt nfet$215 a_38_n60# a_n84_0# a_138_0# VSUBS
X0 a_138_0# a_38_n60# a_n84_0# VSUBS nfet_03v3 ad=0.61p pd=3.22u as=0.61p ps=3.22u w=1u l=0.5u
.ends

.subckt pfet$212 w_n180_n88# a_n92_0# a_342_0# a_138_0# a_38_n136# a_242_n136#
X0 a_342_0# a_242_n136# a_138_0# w_n180_n88# pfet_03v3 ad=1.95p pd=7.3u as=0.78p ps=3.52u w=3u l=0.5u
X1 a_138_0# a_38_n136# a_n92_0# w_n180_n88# pfet_03v3 ad=0.78p pd=3.52u as=1.95p ps=7.3u w=3u l=0.5u
.ends

.subckt asc_dual_psd_def_20250809 vdd vss pd1 pd2 pd3 pd4 pd5 pd6 pd7 pd8 pd9 fout
+ sd1 sd2 sd3 sd4 sd5 sd6 sd7 sd8 sd9 fin define
Xpfet$185_17 vdd vdd m1_25739_21786# m1_25107_21786# pfet$185
Xpfet$182_108 vdd vdd m1_15454_18030# m1_15564_15778# pfet$182
Xpfet$189_6 vdd vdd m1_n290_24224# m1_n910_23922# pfet$189
Xnfet$197_5 m1_10458_17836# m1_11738_16080# m1_11271_18030# vss nfet$197
Xnfet$198_10 m1_21590_21786# vss m1_22222_21786# vss nfet$198
Xnfet$217_6 m1_27292_16202# m1_27292_16202# vss vss m1_26774_16398# vss nfet$217
Xnfet$195_2 m1_9288_21786# m1_9288_21786# m1_9645_21447# m1_9645_21447# m1_10509_21586#
+ vss nfet$195
Xpfet$187_3 vdd vdd m1_5901_19550# m1_649_17714# pfet$187
Xnfet$222_4 m1_n4978_24224# m1_n4978_24224# m1_n10452_25858# m1_n10452_25858# m1_n4880_24542#
+ vss nfet$222
Xnfet$208_2 m1_9645_21447# m1_9645_21447# vss vss m1_30492_21430# vss nfet$208
Xpfet$182_18 vdd m1_1119_17714# vdd m1_2194_16202# pfet$182
Xpfet$182_29 vdd vdd m1_1578_16080# m1_n7513_20152# pfet$182
Xpfet$207_4 vdd vdd m1_n5571_25662# m1_n10452_25858# pfet$207
Xpfet$192_1 vdd vdd m1_30256_19792# m1_21456_22513# pfet$192
Xnfet$201_9 m1_n10452_25858# vss m1_27031_17343# vss nfet$201
Xpfet$185_0 vdd vdd m1_n1133_21590# m1_n1263_21786# pfet$185
Xnfet$195_11 m1_19969_21590# m1_19969_21590# m1_21456_22513# m1_21456_22513# m1_20428_21586#
+ vss nfet$195
Xnfet$213_0 m1_7198_15778# m1_7198_15778# m1_7088_18030# m1_7088_18030# m1_7324_17358#
+ vss nfet$213
Xnfet$220_1 m1_n1927_20274# m1_n1927_20274# vss vss m1_n2445_20470# vss nfet$220
Xpfet$205_1 vdd m1_n8625_26174# vdd m1_n8848_25658# pfet$205
Xnfet$199_9 m1_25747_17714# vss m1_27003_19550# vss nfet$199
Xpfet$182_109 vdd vdd m1_10299_17343# m1_13198_17714# pfet$182
Xpfet$189_7 vdd vdd m1_32330_25662# m1_32193_25858# pfet$189
Xnfet$197_6 m1_6116_17343# vss m1_6275_17836# vss nfet$197
Xnfet$217_7 m1_26676_16080# m1_26676_16080# m1_26217_17714# m1_26217_17714# m1_26774_16398#
+ vss nfet$217
Xnfet$195_3 m1_9418_21590# m1_9418_21590# m1_9645_21447# m1_9645_21447# m1_9877_21586#
+ vss nfet$195
Xnfet$198_11 m1_18073_21786# vss m1_18705_21786# vss nfet$198
Xpfet$187_4 vdd vdd m1_12935_19550# m1_9015_17714# pfet$187
Xnfet$208_3 m1_7388_22513# m1_7388_22513# m1_30256_22102# m1_30256_22102# m1_30492_21430#
+ vss nfet$208
Xpfet$182_19 vdd m1_3015_15778# m1_2194_16202# m1_1933_17343# pfet$182
Xnfet$222_5 m1_n4362_24346# m1_n4362_24346# vss vss m1_n4880_24542# vss nfet$222
Xpfet$207_5 vdd vdd m1_n4847_25662# m1_n10452_25858# pfet$207
Xnfet$193_0 m1_4509_24346# m1_4509_24346# vss vss m1_3991_24542# vss nfet$193
Xpfet$192_2 vdd m1_30256_19792# vdd m1_24973_22513# pfet$192
Xpfet$185_1 vdd vdd m1_11671_21786# m1_11039_21786# pfet$185
Xnfet$195_12 m1_16322_21786# m1_16322_21786# m1_17939_22513# m1_17939_22513# m1_17543_21586#
+ vss nfet$195
Xnfet$213_1 m1_5761_16080# m1_5761_16080# vss vss m1_7324_17358# vss nfet$213
Xnfet$220_2 m1_n3206_20274# m1_n3206_20274# vss vss m1_n3724_20470# vss nfet$220
Xnfet$206_0 m1_11039_21786# m1_11039_21786# vss vss m1_9877_21586# vss nfet$206
Xpfet$205_2 vdd m1_n3651_26174# vdd m1_n4978_24224# pfet$205
Xpfet$210_0 vdd m1_n6380_21786# m1_n6380_21786# m1_n5019_19550# m1_n5227_20152# m1_n5227_20152#
+ pfet$210
Xnfet$197_7 m1_9485_17714# vss m1_10075_17518# vss nfet$197
Xpfet$189_8 vdd vdd m1_33174_24224# m1_32554_23922# pfet$189
Xpfet$181_110 vdd m1_11903_24542# vdd m1_12875_24346# pfet$181
Xnfet$198_12 m1_14556_21786# vss m1_15188_21786# vss nfet$198
Xpfet$187_5 vdd vdd m1_8137_20152# m1_965_15478# pfet$187
Xnfet$195_4 m1_5901_21590# m1_5901_21590# m1_7388_22513# m1_7388_22513# m1_6360_21586#
+ vss nfet$195
Xnfet$222_6 m1_n4978_24224# m1_n4978_24224# vss vss m1_n3415_25502# vss nfet$222
Xnfet$193_1 m1_3893_24224# m1_3893_24224# m1_3537_24542# m1_3537_24542# m1_3991_24542#
+ vss nfet$193
Xpfet$192_3 vdd vdd m1_34843_21786# m1_34093_19792# pfet$192
Xpfet$207_6 vdd vdd m1_n4623_25487# fin pfet$207
Xpfet$185_2 vdd vdd m1_12935_21590# m1_12805_21786# pfet$185
Xnfet$195_13 m1_16452_21590# m1_16452_21590# m1_17939_22513# m1_17939_22513# m1_16911_21586#
+ vss nfet$195
Xnfet$213_2 m1_9944_16080# m1_9944_16080# vss vss m1_11507_17358# vss nfet$213
Xnfet$220_3 m1_n6973_21481# m1_n6973_21481# m1_n6839_20152# m1_n6839_20152# m1_n6282_20470#
+ vss nfet$220
Xpfet$205_3 vdd vdd m1_n3651_26174# m1_n3541_23922# pfet$205
Xnfet$206_1 m1_11671_21786# m1_11671_21786# vss vss m1_10509_21586# vss nfet$206
Xpfet$183_30 vdd vdd vdd m1_17539_22402# m1_16322_21786# m1_16322_21786# pfet$183
Xpfet$190_0 vdd vdd m1_n646_24542# m1_n290_24224# pfet$190
Xpfet$210_1 vdd vdd vdd m1_n5019_22344# m1_n4485_21904# m1_n4485_21904# pfet$210
Xpfet$203_0 vdd m1_n10309_25662# m1_n10572_23922# m1_n10796_25662# pfet$203
Xnfet$201_10 m1_26217_17714# vss m1_29087_15778# vss nfet$201
Xnfet$197_8 m1_7555_16080# vss m1_7198_15778# vss nfet$197
Xpfet$189_9 vdd vdd m1_28624_21786# m1_32675_25947# pfet$189
Xpfet$181_100 vdd vdd m1_29607_24346# m1_n7513_20152# pfet$181
Xnfet$198_13 m1_16322_21786# vss m1_16452_21590# vss nfet$198
Xnfet$229_0 m1_n6839_20152# vss m1_n8145_21908# vss nfet$229
Xnfet$195_5 m1_2254_21786# m1_2254_21786# m1_3871_22513# m1_3871_22513# m1_3475_21586#
+ vss nfet$195
Xpfet$187_6 vdd vdd m1_9418_19550# m1_4832_17714# pfet$187
Xnfet$193_2 m1_4997_25658# m1_4997_25658# vss vss m1_5456_25502# vss nfet$193
Xnfet$222_7 m1_n3541_23922# m1_n3541_23922# m1_n3651_26174# m1_n3651_26174# m1_n3415_25502#
+ vss nfet$222
Xpfet$192_4 vdd m1_34093_19792# vdd m1_32818_20470# pfet$192
Xpfet$207_7 vdd vdd m1_n3541_23922# m1_n3184_24224# pfet$207
Xpfet$185_3 vdd vdd m1_9418_21590# m1_9288_21786# pfet$185
Xnfet$195_14 m1_12805_21786# m1_12805_21786# m1_14422_22513# m1_14422_22513# m1_14026_21586#
+ vss nfet$195
Xnfet$213_3 m1_11381_15778# m1_11381_15778# m1_11271_18030# m1_11271_18030# m1_11507_17358#
+ vss nfet$213
Xnfet$220_4 m1_2590_19404# m1_2590_19404# vss vss m1_n2445_21430# vss nfet$220
Xnfet$206_2 m1_8154_21786# m1_8154_21786# vss vss m1_6992_21586# vss nfet$206
Xpfet$183_31 vdd vdd vdd m1_27462_22102# m1_27003_21590# m1_27003_21590# pfet$183
Xpfet$183_20 vdd vdd vdd m1_20428_22102# m1_19969_21590# m1_19969_21590# pfet$183
Xpfet$190_1 vdd m1_n789_25858# vdd m1_814_25658# pfet$190
Xpfet$183_0 vdd vdd vdd m1_n674_22102# m1_n1133_21590# m1_n1133_21590# pfet$183
Xpfet$205_4 vdd m1_n10452_25858# vdd m1_n4362_24346# pfet$205
Xnfet$211_0 m1_34093_22102# vss fout vss nfet$211
Xpfet$210_2 vdd m1_n5764_21786# m1_n5764_21786# m1_n5019_22344# m1_n5227_21418# m1_n5227_21418#
+ pfet$210
Xpfet$203_1 vdd m1_n9952_24224# m1_n8848_25658# m1_n10933_25858# pfet$203
Xnfet$201_11 m1_27031_17343# vss m1_27190_17836# vss nfet$201
Xnfet$197_9 sd5 vss m1_9331_15478# vss nfet$197
Xpfet$181_101 vdd vdd m1_28010_25858# m1_21590_21786# pfet$181
Xnfet$198_14 m1_19839_21786# vss m1_19969_21590# vss nfet$198
Xnfet$195_6 m1_2384_21590# m1_2384_21590# m1_3871_22513# m1_3871_22513# m1_2843_21586#
+ vss nfet$195
Xpfet$187_7 vdd vdd m1_11654_20152# m1_5148_15478# pfet$187
Xpfet$192_5 vdd vdd m1_34093_19792# m1_32818_21586# pfet$192
Xnfet$193_3 m1_4509_24346# m1_4509_24346# m1_3394_25858# m1_3394_25858# m1_5456_25502#
+ vss nfet$193
Xpfet$207_8 vdd vdd m1_n2567_23922# m1_n7320_25516# pfet$207
Xpfet$185_4 vdd vdd m1_8154_21786# m1_7522_21786# pfet$185
Xnfet$195_15 m1_26873_21786# m1_26873_21786# m1_28490_22513# m1_28490_22513# m1_28094_21586#
+ vss nfet$195
Xnfet$213_4 m1_10560_16202# m1_10560_16202# vss vss m1_10042_16398# vss nfet$213
Xnfet$220_5 m1_6107_19404# m1_6107_19404# m1_n5227_21418# m1_n5227_21418# m1_n2445_21430#
+ vss nfet$220
Xnfet$206_3 m1_7522_21786# m1_7522_21786# vss vss m1_6360_21586# vss nfet$206
Xpfet$183_32 vdd m1_28490_22513# m1_28490_22513# m1_28090_22402# m1_28624_21786# m1_28624_21786#
+ pfet$183
Xpfet$183_21 vdd vdd vdd m1_21056_22402# m1_19839_21786# m1_19839_21786# pfet$183
Xpfet$190_2 vdd vdd m1_n789_25858# m1_326_24346# pfet$190
Xpfet$205_5 vdd vdd m1_n10308_24542# m1_n9952_24224# pfet$205
Xpfet$183_1 vdd m1_7388_22513# m1_7388_22513# m1_6988_22402# m1_7522_21786# m1_7522_21786#
+ pfet$183
Xpfet$183_10 vdd m1_3871_22513# m1_3871_22513# m1_2843_22102# m1_4637_21786# m1_4637_21786#
+ pfet$183
Xnfet$204_0 pd1 vss m1_n1263_21786# vss nfet$204
Xpfet$203_2 vdd m1_n4362_24346# m1_n4847_25662# m1_n4464_25980# pfet$203
Xnfet$201_12 m1_28470_16080# vss m1_28113_15778# vss nfet$201
Xpfet$181_102 vdd m1_28371_23922# m1_28635_24542# m1_28010_25858# pfet$181
Xnfet$198_15 m1_28624_21786# vss m1_29256_21786# vss nfet$198
Xnfet$195_7 m1_5771_21786# m1_5771_21786# m1_7388_22513# m1_7388_22513# m1_6992_21586#
+ vss nfet$195
Xpfet$187_8 vdd vdd m1_n1133_19550# m1_n7383_17599# pfet$187
Xpfet$186_10 vdd vdd m1_27031_17343# m1_n10452_25858# pfet$186
Xnfet$193_4 m1_12259_24224# m1_12259_24224# m1_11903_24542# m1_11903_24542# m1_12357_24542#
+ vss nfet$193
Xpfet$207_9 vdd vdd m1_n4464_25980# m1_n4623_25487# pfet$207
Xpfet$192_6 vdd vdd m1_31535_19792# m1_14422_22513# pfet$192
Xpfet$185_5 vdd vdd m1_1120_21786# m1_488_21786# pfet$185
Xnfet$195_16 m1_27003_21590# m1_27003_21590# m1_28490_22513# m1_28490_22513# m1_27462_21586#
+ vss nfet$195
Xnfet$213_5 m1_9944_16080# m1_9944_16080# m1_9485_17714# m1_9485_17714# m1_10042_16398#
+ vss nfet$213
Xnfet$220_6 m1_n5764_21786# m1_n5764_21786# vss vss m1_n6282_21430# vss nfet$220
Xnfet$206_4 m1_1120_21786# m1_1120_21786# vss vss m1_n42_21586# vss nfet$206
Xpfet$190_3 vdd m1_n646_24542# vdd m1_326_24346# pfet$190
Xpfet$205_6 vdd m1_n10308_24542# vdd m1_n9336_24346# pfet$205
Xpfet$183_2 vdd m1_7388_22513# m1_7388_22513# m1_6360_22102# m1_8154_21786# m1_8154_21786#
+ pfet$183
Xpfet$183_33 vdd m1_28490_22513# m1_28490_22513# m1_27462_22102# m1_29256_21786# m1_29256_21786#
+ pfet$183
Xpfet$183_22 vdd m1_21456_22513# m1_21456_22513# m1_20428_22102# m1_22222_21786# m1_22222_21786#
+ pfet$183
Xpfet$183_11 vdd vdd vdd m1_2843_22102# m1_2384_21590# m1_2384_21590# pfet$183
Xnfet$204_1 pd2 vss m1_2254_21786# vss nfet$204
Xpfet$203_3 vdd m1_n3184_24224# m1_n3651_26174# m1_n4623_25487# pfet$203
Xnfet$201_13 m1_26217_17714# vss m1_25747_17714# vss nfet$201
Xpfet$189_10 vdd vdd m1_35071_24542# m1_32675_25947# pfet$189
Xpfet$201_0 vdd vdd m1_n7513_20152# m1_35837_22102# pfet$201
Xpfet$181_103 vdd vdd m1_28635_24542# m1_28991_24224# pfet$181
Xnfet$195_8 m1_23486_21590# m1_23486_21590# m1_24973_22513# m1_24973_22513# m1_23945_21586#
+ vss nfet$195
Xnfet$198_16 m1_26873_21786# vss m1_27003_21590# vss nfet$198
Xpfet$187_9 vdd vdd m1_27003_19550# m1_25747_17714# pfet$187
Xpfet$186_11 vdd vdd m1_26807_17518# m1_26217_17714# pfet$186
Xpfet$199_0 vdd vdd m1_n7247_17714# m1_n6788_16080# pfet$199
Xnfet$193_5 m1_8692_24346# m1_8692_24346# vss vss m1_8174_24542# vss nfet$193
Xpfet$192_7 vdd vdd m1_31535_22102# m1_354_22513# pfet$192
Xnfet$227_0 m1_n927_19404# m1_n927_19404# vss vss m1_n6282_20470# vss nfet$227
Xpfet$185_6 vdd vdd m1_5901_21590# m1_5771_21786# pfet$185
Xnfet$195_17 m1_12935_21590# m1_12935_21590# m1_14422_22513# m1_14422_22513# m1_13394_21586#
+ vss nfet$195
Xnfet$213_6 m1_1578_16080# m1_1578_16080# vss vss m1_3141_17358# vss nfet$213