* NGSPICE file created from top_level_20250919_sc.ext - technology: gf180mcuD

.subckt pfet$203 w_n180_n88# a_n92_0# a_138_0# a_38_n136#
X0 a_138_0# a_38_n136# a_n92_0# w_n180_n88# pfet_03v3 ad=7.8p pd=25.3u as=7.8p ps=25.3u w=12u l=0.5u
.ends

.subckt pfet$201 a_1158_0# a_750_0# a_1058_n136# a_546_0# a_1262_n136# a_1566_0# a_954_0#
+ w_n180_n88# a_854_n136# a_n92_0# a_446_n136# a_650_n136# a_342_0# a_1466_n136# a_138_0#
+ a_38_n136# a_1362_0# a_242_n136#
X0 a_1362_0# a_1262_n136# a_1158_0# w_n180_n88# pfet_03v3 ad=3.12p pd=12.52u as=3.12p ps=12.52u w=12u l=0.5u
X1 a_954_0# a_854_n136# a_750_0# w_n180_n88# pfet_03v3 ad=3.12p pd=12.52u as=3.12p ps=12.52u w=12u l=0.5u
X2 a_1566_0# a_1466_n136# a_1362_0# w_n180_n88# pfet_03v3 ad=7.8p pd=25.3u as=3.12p ps=12.52u w=12u l=0.5u
X3 a_342_0# a_242_n136# a_138_0# w_n180_n88# pfet_03v3 ad=3.12p pd=12.52u as=3.12p ps=12.52u w=12u l=0.5u
X4 a_546_0# a_446_n136# a_342_0# w_n180_n88# pfet_03v3 ad=3.12p pd=12.52u as=3.12p ps=12.52u w=12u l=0.5u
X5 a_1158_0# a_1058_n136# a_954_0# w_n180_n88# pfet_03v3 ad=3.12p pd=12.52u as=3.12p ps=12.52u w=12u l=0.5u
X6 a_138_0# a_38_n136# a_n92_0# w_n180_n88# pfet_03v3 ad=3.12p pd=12.52u as=7.8p ps=25.3u w=12u l=0.5u
X7 a_750_0# a_650_n136# a_546_0# w_n180_n88# pfet_03v3 ad=3.12p pd=12.52u as=3.12p ps=12.52u w=12u l=0.5u
.ends

.subckt nfet$218 a_38_n60# a_n84_0# a_138_0# VSUBS
X0 a_138_0# a_38_n60# a_n84_0# VSUBS nfet_03v3 ad=0.61p pd=3.22u as=0.61p ps=3.22u w=1u l=0.5u
.ends

.subckt nfet$216 a_38_n60# a_n84_0# a_138_0# VSUBS
X0 a_138_0# a_38_n60# a_n84_0# VSUBS nfet_03v3 ad=2.44p pd=9.22u as=2.44p ps=9.22u w=4u l=0.5u
.ends

.subckt nfet$214 a_750_0# a_546_0# a_446_n60# a_242_n60# a_38_n60# a_n84_0# a_342_0#
+ a_138_0# a_650_n60# VSUBS
X0 a_342_0# a_242_n60# a_138_0# VSUBS nfet_03v3 ad=1.04p pd=4.52u as=1.04p ps=4.52u w=4u l=0.5u
X1 a_546_0# a_446_n60# a_342_0# VSUBS nfet_03v3 ad=1.04p pd=4.52u as=1.04p ps=4.52u w=4u l=0.5u
X2 a_138_0# a_38_n60# a_n84_0# VSUBS nfet_03v3 ad=1.04p pd=4.52u as=2.44p ps=9.22u w=4u l=0.5u
X3 a_750_0# a_650_n60# a_546_0# VSUBS nfet_03v3 ad=2.44p pd=9.22u as=1.04p ps=4.52u w=4u l=0.5u
.ends

.subckt pfet$204 w_n180_n88# a_n92_0# a_138_0# a_38_n136#
X0 a_138_0# a_38_n136# a_n92_0# w_n180_n88# pfet_03v3 ad=1.95p pd=7.3u as=1.95p ps=7.3u w=3u l=0.5u
.ends

.subckt pfet$202 a_750_0# a_546_0# w_n180_n88# a_n92_0# a_446_n136# a_650_n136# a_342_0#
+ a_138_0# a_38_n136# a_242_n136#
X0 a_342_0# a_242_n136# a_138_0# w_n180_n88# pfet_03v3 ad=3.12p pd=12.52u as=3.12p ps=12.52u w=12u l=0.5u
X1 a_546_0# a_446_n136# a_342_0# w_n180_n88# pfet_03v3 ad=3.12p pd=12.52u as=3.12p ps=12.52u w=12u l=0.5u
X2 a_138_0# a_38_n136# a_n92_0# w_n180_n88# pfet_03v3 ad=3.12p pd=12.52u as=7.8p ps=25.3u w=12u l=0.5u
X3 a_750_0# a_650_n136# a_546_0# w_n180_n88# pfet_03v3 ad=7.8p pd=25.3u as=3.12p ps=12.52u w=12u l=0.5u
.ends

.subckt nfet$217 a_38_n60# a_n84_0# a_138_0# VSUBS
X0 a_138_0# a_38_n60# a_n84_0# VSUBS nfet_03v3 ad=0.61p pd=3.22u as=0.61p ps=3.22u w=1u l=0.5u
.ends

.subckt nfet$215 a_1158_0# a_750_0# a_546_0# a_446_n60# a_242_n60# a_1566_0# a_954_0#
+ a_1466_n60# a_1262_n60# a_38_n60# a_n84_0# a_1058_n60# a_854_n60# a_342_0# a_138_0#
+ a_650_n60# a_1362_0# VSUBS
X0 a_954_0# a_854_n60# a_750_0# VSUBS nfet_03v3 ad=1.04p pd=4.52u as=1.04p ps=4.52u w=4u l=0.5u
X1 a_1566_0# a_1466_n60# a_1362_0# VSUBS nfet_03v3 ad=2.44p pd=9.22u as=1.04p ps=4.52u w=4u l=0.5u
X2 a_342_0# a_242_n60# a_138_0# VSUBS nfet_03v3 ad=1.04p pd=4.52u as=1.04p ps=4.52u w=4u l=0.5u
X3 a_546_0# a_446_n60# a_342_0# VSUBS nfet_03v3 ad=1.04p pd=4.52u as=1.04p ps=4.52u w=4u l=0.5u
X4 a_1158_0# a_1058_n60# a_954_0# VSUBS nfet_03v3 ad=1.04p pd=4.52u as=1.04p ps=4.52u w=4u l=0.5u
X5 a_138_0# a_38_n60# a_n84_0# VSUBS nfet_03v3 ad=1.04p pd=4.52u as=2.44p ps=9.22u w=4u l=0.5u
X6 a_750_0# a_650_n60# a_546_0# VSUBS nfet_03v3 ad=1.04p pd=4.52u as=1.04p ps=4.52u w=4u l=0.5u
X7 a_1362_0# a_1262_n60# a_1158_0# VSUBS nfet_03v3 ad=1.04p pd=4.52u as=1.04p ps=4.52u w=4u l=0.5u
.ends

.subckt pfet$205 w_n180_n88# a_n92_0# a_138_0# a_38_n136#
X0 a_138_0# a_38_n136# a_n92_0# w_n180_n88# pfet_03v3 ad=1.95p pd=7.3u as=1.95p ps=7.3u w=3u l=0.5u
.ends

.subckt asc_drive_buffer_up vss out in vdd
Xpfet$203_0 vdd vdd m1_506_712# m1_n30_1318# pfet$203
Xpfet$201_0 out out m1_778_712# vdd m1_778_712# out vdd vdd m1_778_712# out m1_778_712#
+ m1_778_712# out m1_778_712# vdd m1_778_712# vdd m1_778_712# pfet$201
Xnfet$218_0 in vss m1_n566_1318# vss nfet$218
Xnfet$216_0 m1_n30_1318# vss m1_506_712# vss nfet$216
Xnfet$214_0 m1_778_712# vss m1_506_712# m1_506_712# m1_506_712# m1_778_712# m1_778_712#
+ vss m1_506_712# vss nfet$214
Xpfet$204_0 vdd vdd m1_n30_1318# m1_n566_1318# pfet$204
Xpfet$202_0 m1_778_712# vdd vdd m1_778_712# m1_506_712# m1_506_712# m1_778_712# vdd
+ m1_506_712# m1_506_712# pfet$202
Xnfet$217_0 m1_n566_1318# vss m1_n30_1318# vss nfet$217
Xnfet$215_0 out out vss m1_778_712# m1_778_712# out vss m1_778_712# m1_778_712# m1_778_712#
+ out m1_778_712# m1_778_712# out vss m1_778_712# vss vss nfet$215
Xpfet$205_0 vdd vdd m1_n566_1318# in pfet$205
.ends

.subckt nfet$169 a_242_n60# a_38_n60# a_n84_0# a_342_0# a_138_0# VSUBS
X0 a_342_0# a_242_n60# a_138_0# VSUBS nfet_03v3 ad=0.61p pd=3.22u as=0.26p ps=1.52u w=1u l=0.5u
X1 a_138_0# a_38_n60# a_n84_0# VSUBS nfet_03v3 ad=0.26p pd=1.52u as=0.61p ps=3.22u w=1u l=0.5u
.ends

.subckt pfet$159 w_n180_n88# a_n92_0# a_138_0# a_38_n136#
X0 a_138_0# a_38_n136# a_n92_0# w_n180_n88# pfet_03v3 ad=1.95p pd=7.3u as=1.95p ps=7.3u w=3u l=0.5u
.ends

.subckt pfet$166 w_n180_n88# a_n92_0# a_138_0# a_38_n136#
X0 a_138_0# a_38_n136# a_n92_0# w_n180_n88# pfet_03v3 ad=1.95p pd=7.3u as=1.95p ps=7.3u w=3u l=0.5u
.ends

.subckt nfet$154 a_38_n60# a_n84_0# a_138_0# VSUBS
X0 a_138_0# a_38_n60# a_n84_0# VSUBS nfet_03v3 ad=0.61p pd=3.22u as=0.61p ps=3.22u w=1u l=0.5u
.ends

.subckt nfet$170 a_242_n60# a_38_n60# a_n84_0# a_342_0# a_138_0# VSUBS
X0 a_342_0# a_242_n60# a_138_0# VSUBS nfet_03v3 ad=0.61p pd=3.22u as=0.26p ps=1.52u w=1u l=0.5u
X1 a_138_0# a_38_n60# a_n84_0# VSUBS nfet_03v3 ad=0.26p pd=1.52u as=0.61p ps=3.22u w=1u l=0.5u
.ends

.subckt nfet$172 a_38_n60# a_n84_0# a_138_0# VSUBS
X0 a_138_0# a_38_n60# a_n84_0# VSUBS nfet_03v3 ad=0.61p pd=3.22u as=0.61p ps=3.22u w=1u l=0.5u
.ends

.subckt nfet$158 a_38_n60# a_n84_0# a_138_0# VSUBS
X0 a_138_0# a_38_n60# a_n84_0# VSUBS nfet_03v3 ad=0.61p pd=3.22u as=0.61p ps=3.22u w=1u l=0.5u
.ends

.subckt pfet$142 w_n180_n88# a_n92_0# a_342_0# a_138_0# a_38_n136# a_242_n136#
X0 a_342_0# a_242_n136# a_138_0# w_n180_n88# pfet_03v3 ad=1.95p pd=7.3u as=0.78p ps=3.52u w=3u l=0.5u
X1 a_138_0# a_38_n136# a_n92_0# w_n180_n88# pfet_03v3 ad=0.78p pd=3.52u as=1.95p ps=7.3u w=3u l=0.5u
.ends

.subckt pfet$164 w_n180_n88# a_n92_0# a_138_0# a_38_n136#
X0 a_138_0# a_38_n136# a_n92_0# w_n180_n88# pfet_03v3 ad=1.95p pd=7.3u as=1.95p ps=7.3u w=3u l=0.5u
.ends

.subckt nfet$149 a_242_n60# a_38_n60# a_n84_0# a_342_0# a_138_0# VSUBS
X0 a_342_0# a_242_n60# a_138_0# VSUBS nfet_03v3 ad=0.61p pd=3.22u as=0.26p ps=1.52u w=1u l=0.5u
X1 a_138_0# a_38_n60# a_n84_0# VSUBS nfet_03v3 ad=0.26p pd=1.52u as=0.61p ps=3.22u w=1u l=0.5u
.ends

.subckt nfet$151 a_242_n60# a_38_n60# a_n84_0# a_342_0# a_138_0# VSUBS
X0 a_342_0# a_242_n60# a_138_0# VSUBS nfet_03v3 ad=0.61p pd=3.22u as=0.26p ps=1.52u w=1u l=0.5u
X1 a_138_0# a_38_n60# a_n84_0# VSUBS nfet_03v3 ad=0.26p pd=1.52u as=0.61p ps=3.22u w=1u l=0.5u
.ends

.subckt pfet$155 w_n180_n88# a_n92_0# a_342_0# a_138_0# a_38_n136# a_242_n136#
X0 a_342_0# a_242_n136# a_138_0# w_n180_n88# pfet_03v3 ad=1.95p pd=7.3u as=0.78p ps=3.52u w=3u l=0.5u
X1 a_138_0# a_38_n136# a_n92_0# w_n180_n88# pfet_03v3 ad=0.78p pd=3.52u as=1.95p ps=7.3u w=3u l=0.5u
.ends

.subckt nfet$163 a_242_n60# a_38_n60# a_n84_0# a_342_0# a_138_0# VSUBS
X0 a_342_0# a_242_n60# a_138_0# VSUBS nfet_03v3 ad=0.61p pd=3.22u as=0.26p ps=1.52u w=1u l=0.5u
X1 a_138_0# a_38_n60# a_n84_0# VSUBS nfet_03v3 ad=0.26p pd=1.52u as=0.61p ps=3.22u w=1u l=0.5u
.ends

.subckt pfet$162 w_n180_n88# a_n92_0# a_138_0# a_38_n136#
X0 a_138_0# a_38_n136# a_n92_0# w_n180_n88# pfet_03v3 ad=1.95p pd=7.3u as=1.95p ps=7.3u w=3u l=0.5u
.ends

.subckt pfet$148 w_n180_n88# a_n92_0# a_138_0# a_38_n136#
X0 a_138_0# a_38_n136# a_n92_0# w_n180_n88# pfet_03v3 ad=1.95p pd=7.3u as=1.95p ps=7.3u w=3u l=0.5u
.ends

.subckt pfet$141 w_n180_n88# a_n92_0# a_138_0# a_38_n136#
X0 a_138_0# a_38_n136# a_n92_0# w_n180_n88# pfet_03v3 ad=1.95p pd=7.3u as=1.95p ps=7.3u w=3u l=0.5u
.ends

.subckt nfet$162 a_242_n60# a_38_n60# a_n84_0# a_342_0# a_138_0# VSUBS
X0 a_342_0# a_242_n60# a_138_0# VSUBS nfet_03v3 ad=0.61p pd=3.22u as=0.26p ps=1.52u w=1u l=0.5u
X1 a_138_0# a_38_n60# a_n84_0# VSUBS nfet_03v3 ad=0.26p pd=1.52u as=0.61p ps=3.22u w=1u l=0.5u
.ends

.subckt pfet$145 w_n180_n88# a_n92_0# a_138_0# a_38_n136#
X0 a_138_0# a_38_n136# a_n92_0# w_n180_n88# pfet_03v3 ad=1.95p pd=7.3u as=1.95p ps=7.3u w=3u l=0.5u
.ends

.subckt nfet$156 a_38_n60# a_n84_0# a_138_0# VSUBS
X0 a_138_0# a_38_n60# a_n84_0# VSUBS nfet_03v3 ad=0.61p pd=3.22u as=0.61p ps=3.22u w=1u l=0.5u
.ends

.subckt pfet$160 w_n180_n88# a_n92_0# a_138_0# a_38_n136#
X0 a_138_0# a_38_n136# a_n92_0# w_n180_n88# pfet_03v3 ad=1.95p pd=7.3u as=1.95p ps=7.3u w=3u l=0.5u
.ends

.subckt pfet$153 w_n180_n88# a_n92_0# a_138_0# a_38_n136#
X0 a_138_0# a_38_n136# a_n92_0# w_n180_n88# pfet_03v3 ad=1.95p pd=7.3u as=1.95p ps=7.3u w=3u l=0.5u
.ends

.subckt nfet$179 a_38_n60# a_n84_0# a_138_0# VSUBS
X0 a_138_0# a_38_n60# a_n84_0# VSUBS nfet_03v3 ad=0.61p pd=3.22u as=0.61p ps=3.22u w=1u l=0.5u
.ends

.subckt nfet$161 a_242_n60# a_38_n60# a_n84_0# a_342_0# a_138_0# VSUBS
X0 a_342_0# a_242_n60# a_138_0# VSUBS nfet_03v3 ad=0.61p pd=3.22u as=0.26p ps=1.52u w=1u l=0.5u
X1 a_138_0# a_38_n60# a_n84_0# VSUBS nfet_03v3 ad=0.26p pd=1.52u as=0.61p ps=3.22u w=1u l=0.5u
.ends

.subckt pfet$146 w_n180_n88# a_n92_0# a_138_0# a_38_n136#
X0 a_138_0# a_38_n136# a_n92_0# w_n180_n88# pfet_03v3 ad=1.95p pd=7.3u as=1.95p ps=7.3u w=3u l=0.5u
.ends

.subckt pfet$140 w_n180_n88# a_n92_0# a_138_0# a_38_n136#
X0 a_138_0# a_38_n136# a_n92_0# w_n180_n88# pfet_03v3 ad=1.95p pd=7.3u as=1.95p ps=7.3u w=3u l=0.5u
.ends

.subckt nfet$184 a_38_n60# a_n84_0# a_138_0# VSUBS
X0 a_138_0# a_38_n60# a_n84_0# VSUBS nfet_03v3 ad=0.61p pd=3.22u as=0.61p ps=3.22u w=1u l=0.5u
.ends

.subckt pfet$169 w_n180_n88# a_n92_0# a_342_0# a_138_0# a_38_n136# a_242_n136#
X0 a_342_0# a_242_n136# a_138_0# w_n180_n88# pfet_03v3 ad=1.95p pd=7.3u as=0.78p ps=3.52u w=3u l=0.5u
X1 a_138_0# a_38_n136# a_n92_0# w_n180_n88# pfet_03v3 ad=0.78p pd=3.52u as=1.95p ps=7.3u w=3u l=0.5u
.ends

.subckt pfet$151 w_n180_n88# a_n92_0# a_138_0# a_38_n136#
X0 a_138_0# a_38_n136# a_n92_0# w_n180_n88# pfet_03v3 ad=1.95p pd=7.3u as=1.95p ps=7.3u w=3u l=0.5u
.ends

.subckt nfet$177 a_38_n60# a_n84_0# a_138_0# VSUBS
X0 a_138_0# a_38_n60# a_n84_0# VSUBS nfet_03v3 ad=0.61p pd=3.22u as=0.61p ps=3.22u w=1u l=0.5u
.ends

.subckt nfet$152 a_242_n60# a_38_n60# a_n84_0# a_342_0# a_138_0# VSUBS
X0 a_342_0# a_242_n60# a_138_0# VSUBS nfet_03v3 ad=0.61p pd=3.22u as=0.26p ps=1.52u w=1u l=0.5u
X1 a_138_0# a_38_n60# a_n84_0# VSUBS nfet_03v3 ad=0.26p pd=1.52u as=0.61p ps=3.22u w=1u l=0.5u
.ends

.subckt pfet$144 w_n180_n88# a_n92_0# a_138_0# a_38_n136#
X0 a_138_0# a_38_n136# a_n92_0# w_n180_n88# pfet_03v3 ad=1.95p pd=7.3u as=1.95p ps=7.3u w=3u l=0.5u
.ends

.subckt nfet$155 a_38_n60# a_n84_0# a_138_0# VSUBS
X0 a_138_0# a_38_n60# a_n84_0# VSUBS nfet_03v3 ad=0.61p pd=3.22u as=0.61p ps=3.22u w=1u l=0.5u
.ends

.subckt nfet$182 a_38_n60# a_n84_0# a_138_0# VSUBS
X0 a_138_0# a_38_n60# a_n84_0# VSUBS nfet_03v3 ad=0.61p pd=3.22u as=0.61p ps=3.22u w=1u l=0.5u
.ends

.subckt pfet$167 w_n180_n88# a_n92_0# a_138_0# a_38_n136#
X0 a_138_0# a_38_n136# a_n92_0# w_n180_n88# pfet_03v3 ad=1.95p pd=7.3u as=1.95p ps=7.3u w=3u l=0.5u
.ends

.subckt nfet$175 a_38_n60# a_n84_0# a_138_0# VSUBS
X0 a_138_0# a_38_n60# a_n84_0# VSUBS nfet_03v3 ad=0.61p pd=3.22u as=0.61p ps=3.22u w=1u l=0.5u
.ends

.subckt nfet$168 a_38_n60# a_n84_0# a_138_0# VSUBS
X0 a_138_0# a_38_n60# a_n84_0# VSUBS nfet_03v3 ad=0.61p pd=3.22u as=0.61p ps=3.22u w=1u l=0.5u
.ends

.subckt pfet$143 w_n180_n88# a_n92_0# a_342_0# a_138_0# a_38_n136# a_242_n136#
X0 a_342_0# a_242_n136# a_138_0# w_n180_n88# pfet_03v3 ad=1.95p pd=7.3u as=0.78p ps=3.52u w=3u l=0.5u
X1 a_138_0# a_38_n136# a_n92_0# w_n180_n88# pfet_03v3 ad=0.78p pd=3.52u as=1.95p ps=7.3u w=3u l=0.5u
.ends

.subckt pfet$172 w_n180_n88# a_n92_0# a_138_0# a_38_n136#
X0 a_138_0# a_38_n136# a_n92_0# w_n180_n88# pfet_03v3 ad=1.95p pd=7.3u as=1.95p ps=7.3u w=3u l=0.5u
.ends

.subckt nfet$150 a_38_n60# a_n84_0# a_138_0# VSUBS
X0 a_138_0# a_38_n60# a_n84_0# VSUBS nfet_03v3 ad=0.61p pd=3.22u as=0.61p ps=3.22u w=1u l=0.5u
.ends

.subckt nfet$180 a_38_n60# a_n84_0# a_138_0# VSUBS
X0 a_138_0# a_38_n60# a_n84_0# VSUBS nfet_03v3 ad=0.61p pd=3.22u as=0.61p ps=3.22u w=1u l=0.5u
.ends

.subckt pfet$165 w_n180_n88# a_n92_0# a_138_0# a_38_n136#
X0 a_138_0# a_38_n136# a_n92_0# w_n180_n88# pfet_03v3 ad=1.95p pd=7.3u as=1.95p ps=7.3u w=3u l=0.5u
.ends

.subckt nfet$153 a_38_n60# a_n84_0# a_138_0# VSUBS
X0 a_138_0# a_38_n60# a_n84_0# VSUBS nfet_03v3 ad=0.61p pd=3.22u as=0.61p ps=3.22u w=1u l=0.5u
.ends

.subckt nfet$173 a_242_n60# a_38_n60# a_n84_0# a_342_0# a_138_0# VSUBS
X0 a_342_0# a_242_n60# a_138_0# VSUBS nfet_03v3 ad=0.61p pd=3.22u as=0.26p ps=1.52u w=1u l=0.5u
X1 a_138_0# a_38_n60# a_n84_0# VSUBS nfet_03v3 ad=0.26p pd=1.52u as=0.61p ps=3.22u w=1u l=0.5u
.ends

.subckt pfet$158 w_n180_n88# a_n92_0# a_138_0# a_38_n136#
X0 a_138_0# a_38_n136# a_n92_0# w_n180_n88# pfet_03v3 ad=1.95p pd=7.3u as=1.95p ps=7.3u w=3u l=0.5u
.ends

.subckt nfet$166 a_38_n60# a_n84_0# a_138_0# VSUBS
X0 a_138_0# a_38_n60# a_n84_0# VSUBS nfet_03v3 ad=0.61p pd=3.22u as=0.61p ps=3.22u w=1u l=0.5u
.ends

.subckt pfet$170 w_n180_n88# a_n92_0# a_138_0# a_38_n136#
X0 a_138_0# a_38_n136# a_n92_0# w_n180_n88# pfet_03v3 ad=1.95p pd=7.3u as=1.95p ps=7.3u w=3u l=0.5u
.ends

.subckt nfet$159 a_38_n60# a_n84_0# a_138_0# VSUBS
X0 a_138_0# a_38_n60# a_n84_0# VSUBS nfet_03v3 ad=0.61p pd=3.22u as=0.61p ps=3.22u w=1u l=0.5u
.ends

.subckt pfet$163 w_n180_n88# a_n92_0# a_138_0# a_38_n136#
X0 a_138_0# a_38_n136# a_n92_0# w_n180_n88# pfet_03v3 ad=1.95p pd=7.3u as=1.95p ps=7.3u w=3u l=0.5u
.ends

.subckt pfet$156 w_n180_n88# a_n92_0# a_138_0# a_38_n136#
X0 a_138_0# a_38_n136# a_n92_0# w_n180_n88# pfet_03v3 ad=1.95p pd=7.3u as=1.95p ps=7.3u w=3u l=0.5u
.ends

.subckt nfet$171 a_38_n60# a_n84_0# a_138_0# VSUBS
X0 a_138_0# a_38_n60# a_n84_0# VSUBS nfet_03v3 ad=0.61p pd=3.22u as=0.61p ps=3.22u w=1u l=0.5u
.ends

.subckt nfet$164 a_242_n60# a_38_n60# a_n84_0# a_342_0# a_138_0# VSUBS
X0 a_342_0# a_242_n60# a_138_0# VSUBS nfet_03v3 ad=0.61p pd=3.22u as=0.26p ps=1.52u w=1u l=0.5u
X1 a_138_0# a_38_n60# a_n84_0# VSUBS nfet_03v3 ad=0.26p pd=1.52u as=0.61p ps=3.22u w=1u l=0.5u
.ends

.subckt pfet$149 w_n180_n88# a_n92_0# a_138_0# a_38_n136#
X0 a_138_0# a_38_n136# a_n92_0# w_n180_n88# pfet_03v3 ad=1.95p pd=7.3u as=1.95p ps=7.3u w=3u l=0.5u
.ends

.subckt nfet$157 a_38_n60# a_n84_0# a_138_0# VSUBS
X0 a_138_0# a_38_n60# a_n84_0# VSUBS nfet_03v3 ad=0.61p pd=3.22u as=0.61p ps=3.22u w=1u l=0.5u
.ends

.subckt pfet$161 w_n180_n88# a_n92_0# a_342_0# a_138_0# a_38_n136# a_242_n136#
X0 a_342_0# a_242_n136# a_138_0# w_n180_n88# pfet_03v3 ad=1.95p pd=7.3u as=0.78p ps=3.52u w=3u l=0.5u
X1 a_138_0# a_38_n136# a_n92_0# w_n180_n88# pfet_03v3 ad=0.78p pd=3.52u as=1.95p ps=7.3u w=3u l=0.5u
.ends

.subckt pfet$154 w_n180_n88# a_n92_0# a_138_0# a_38_n136#
X0 a_138_0# a_38_n136# a_n92_0# w_n180_n88# pfet_03v3 ad=1.95p pd=7.3u as=1.95p ps=7.3u w=3u l=0.5u
.ends

.subckt pfet$147 w_n180_n88# a_n92_0# a_138_0# a_38_n136#
X0 a_138_0# a_38_n136# a_n92_0# w_n180_n88# pfet_03v3 ad=1.95p pd=7.3u as=1.95p ps=7.3u w=3u l=0.5u
.ends

.subckt nfet$185 a_38_n60# a_n84_0# a_138_0# VSUBS
X0 a_138_0# a_38_n60# a_n84_0# VSUBS nfet_03v3 ad=0.61p pd=3.22u as=0.61p ps=3.22u w=1u l=0.5u
.ends

.subckt pfet$152 w_n180_n88# a_n92_0# a_138_0# a_38_n136#
X0 a_138_0# a_38_n136# a_n92_0# w_n180_n88# pfet_03v3 ad=1.95p pd=7.3u as=1.95p ps=7.3u w=3u l=0.5u
.ends

.subckt nfet$178 a_242_n60# a_38_n60# a_n84_0# a_342_0# a_138_0# VSUBS
X0 a_342_0# a_242_n60# a_138_0# VSUBS nfet_03v3 ad=0.61p pd=3.22u as=0.26p ps=1.52u w=1u l=0.5u
X1 a_138_0# a_38_n60# a_n84_0# VSUBS nfet_03v3 ad=0.26p pd=1.52u as=0.61p ps=3.22u w=1u l=0.5u
.ends

.subckt nfet$160 a_38_n60# a_n84_0# a_138_0# VSUBS
X0 a_138_0# a_38_n60# a_n84_0# VSUBS nfet_03v3 ad=0.61p pd=3.22u as=0.61p ps=3.22u w=1u l=0.5u
.ends

.subckt nfet$183 a_242_n60# a_38_n60# a_n84_0# a_342_0# a_138_0# VSUBS
X0 a_342_0# a_242_n60# a_138_0# VSUBS nfet_03v3 ad=0.61p pd=3.22u as=0.26p ps=1.52u w=1u l=0.5u
X1 a_138_0# a_38_n60# a_n84_0# VSUBS nfet_03v3 ad=0.26p pd=1.52u as=0.61p ps=3.22u w=1u l=0.5u
.ends

.subckt pfet$168 w_n180_n88# a_n92_0# a_342_0# a_138_0# a_38_n136# a_242_n136#
X0 a_342_0# a_242_n136# a_138_0# w_n180_n88# pfet_03v3 ad=1.95p pd=7.3u as=0.78p ps=3.52u w=3u l=0.5u
X1 a_138_0# a_38_n136# a_n92_0# w_n180_n88# pfet_03v3 ad=0.78p pd=3.52u as=1.95p ps=7.3u w=3u l=0.5u
.ends

.subckt pfet$150 w_n180_n88# a_n92_0# a_342_0# a_138_0# a_38_n136# a_242_n136#
X0 a_342_0# a_242_n136# a_138_0# w_n180_n88# pfet_03v3 ad=1.95p pd=7.3u as=0.78p ps=3.52u w=3u l=0.5u
X1 a_138_0# a_38_n136# a_n92_0# w_n180_n88# pfet_03v3 ad=0.78p pd=3.52u as=1.95p ps=7.3u w=3u l=0.5u
.ends

.subckt nfet$176 a_242_n60# a_38_n60# a_n84_0# a_342_0# a_138_0# VSUBS
X0 a_342_0# a_242_n60# a_138_0# VSUBS nfet_03v3 ad=0.61p pd=3.22u as=0.26p ps=1.52u w=1u l=0.5u
X1 a_138_0# a_38_n60# a_n84_0# VSUBS nfet_03v3 ad=0.26p pd=1.52u as=0.61p ps=3.22u w=1u l=0.5u
.ends

.subckt nfet$181 a_38_n60# a_n84_0# a_138_0# VSUBS
X0 a_138_0# a_38_n60# a_n84_0# VSUBS nfet_03v3 ad=0.61p pd=3.22u as=0.61p ps=3.22u w=1u l=0.5u
.ends

.subckt nfet$174 a_242_n60# a_38_n60# a_n84_0# a_342_0# a_138_0# VSUBS
X0 a_342_0# a_242_n60# a_138_0# VSUBS nfet_03v3 ad=0.61p pd=3.22u as=0.26p ps=1.52u w=1u l=0.5u
X1 a_138_0# a_38_n60# a_n84_0# VSUBS nfet_03v3 ad=0.26p pd=1.52u as=0.61p ps=3.22u w=1u l=0.5u
.ends

.subckt nfet$167 a_38_n60# a_n84_0# a_138_0# VSUBS
X0 a_138_0# a_38_n60# a_n84_0# VSUBS nfet_03v3 ad=0.61p pd=3.22u as=0.61p ps=3.22u w=1u l=0.5u
.ends

.subckt pfet$171 w_n180_n88# a_n92_0# a_342_0# a_138_0# a_38_n136# a_242_n136#
X0 a_342_0# a_242_n136# a_138_0# w_n180_n88# pfet_03v3 ad=1.95p pd=7.3u as=0.78p ps=3.52u w=3u l=0.5u
X1 a_138_0# a_38_n136# a_n92_0# w_n180_n88# pfet_03v3 ad=0.78p pd=3.52u as=1.95p ps=7.3u w=3u l=0.5u
.ends

.subckt pfet$157 w_n180_n88# a_n92_0# a_342_0# a_138_0# a_38_n136# a_242_n136#
X0 a_342_0# a_242_n136# a_138_0# w_n180_n88# pfet_03v3 ad=1.95p pd=7.3u as=0.78p ps=3.52u w=3u l=0.5u
X1 a_138_0# a_38_n136# a_n92_0# w_n180_n88# pfet_03v3 ad=0.78p pd=3.52u as=1.95p ps=7.3u w=3u l=0.5u
.ends

.subckt nfet$165 a_38_n60# a_n84_0# a_138_0# VSUBS
X0 a_138_0# a_38_n60# a_n84_0# VSUBS nfet_03v3 ad=0.61p pd=3.22u as=0.61p ps=3.22u w=1u l=0.5u
.ends

.subckt asc_dual_psd_def_20250809 vdd vss pd1 pd2 pd3 pd4 pd5 pd6 pd7 pd8 pd9 fout
+ sd1 sd2 sd3 sd4 sd5 sd6 sd7 sd8 sd9 fin define
Xnfet$169_9 m1_2194_16202# m1_2194_16202# vss vss m1_1676_16398# vss nfet$169
Xpfet$159_7 vdd m1_27292_16202# m1_26807_17518# m1_27190_17836# pfet$159
Xpfet$166_8 vdd vdd m1_n2567_23922# m1_n7320_25516# pfet$166
Xnfet$154_15 m1_28624_21786# vss m1_29256_21786# vss nfet$154
Xnfet$170_14 m1_22205_20152# m1_22205_20152# m1_n2543_20130# m1_n2543_20130# m1_21039_20470#
+ vss nfet$170
Xnfet$172_4 m1_27031_17343# m1_27292_16202# m1_26807_17518# vss nfet$172
Xnfet$158_2 m1_n1271_25858# vss m1_n1134_25662# vss nfet$158
Xpfet$142_32 vdd m1_28490_22513# m1_28490_22513# m1_28090_22402# m1_28624_21786# m1_28624_21786#
+ pfet$142
Xpfet$142_21 vdd vdd vdd m1_21056_22402# m1_19839_21786# m1_19839_21786# pfet$142
Xpfet$164_5 vdd vdd m1_n10308_24542# m1_n9952_24224# pfet$164
Xpfet$142_10 vdd m1_3871_22513# m1_3871_22513# m1_2843_22102# m1_4637_21786# m1_4637_21786#
+ pfet$142
Xnfet$149_26 m1_25912_25658# m1_25912_25658# vss vss m1_26371_25502# vss nfet$149
Xnfet$149_15 m1_25424_24346# m1_25424_24346# vss vss m1_24906_24542# vss nfet$149
Xnfet$151_9 m1_23356_21786# m1_23356_21786# m1_24973_22513# m1_24973_22513# m1_24577_21586#
+ vss nfet$151
Xnfet$170_1 m1_1103_20152# m1_1103_20152# m1_n927_19404# m1_n927_19404# m1_n63_20470#
+ vss nfet$170
Xpfet$155_1 vdd m1_35837_22102# m1_35837_22102# m1_36073_22344# fout fout pfet$155
Xnfet$163_0 m1_21456_22513# m1_21456_22513# m1_30256_19792# m1_30256_19792# m1_30492_20470#
+ vss nfet$163
Xpfet$162_2 vdd m1_n4362_24346# m1_n4847_25662# m1_n4464_25980# pfet$162
Xpfet$148_0 vdd vdd m1_n647_25662# m1_n789_25858# pfet$148
Xnfet$151_16 m1_27003_21590# m1_27003_21590# m1_28490_22513# m1_28490_22513# m1_27462_21586#
+ vss nfet$151
Xpfet$141_7 vdd vdd m1_6275_17836# m1_6116_17343# pfet$141
Xnfet$162_15 m1_14556_21786# m1_14556_21786# vss vss m1_13394_21586# vss nfet$162
Xpfet$145_10 vdd vdd m1_27031_17343# m1_n10452_25858# pfet$145
Xpfet$166_9 vdd vdd m1_n4464_25980# m1_n4623_25487# pfet$166
Xnfet$154_16 m1_26873_21786# vss m1_27003_21590# vss nfet$154
Xnfet$170_15 m1_17697_15478# m1_17697_15478# m1_n2543_20130# m1_n2543_20130# m1_20407_20470#
+ vss nfet$170
Xnfet$172_5 m1_27031_17343# m1_29087_15778# m1_28470_16080# vss nfet$172
Xnfet$158_3 m1_n7513_20152# vss m1_326_24346# vss nfet$158
Xpfet$142_33 vdd m1_28490_22513# m1_28490_22513# m1_27462_22102# m1_29256_21786# m1_29256_21786#
+ pfet$142
Xpfet$142_22 vdd m1_21456_22513# m1_21456_22513# m1_20428_22102# m1_22222_21786# m1_22222_21786#
+ pfet$142
Xpfet$164_6 vdd m1_n10308_24542# vdd m1_n9336_24346# pfet$164
Xpfet$142_11 vdd vdd vdd m1_2843_22102# m1_2384_21590# m1_2384_21590# pfet$142
Xnfet$149_27 m1_12875_24346# m1_12875_24346# vss vss m1_12357_24542# vss nfet$149
Xnfet$149_16 m1_24808_24224# m1_24808_24224# m1_24452_24542# m1_24452_24542# m1_24906_24542#
+ vss nfet$149
Xnfet$163_1 m1_14422_22513# m1_14422_22513# m1_31535_19792# m1_31535_19792# m1_31771_20470#
+ vss nfet$163
Xnfet$170_2 m1_n3218_15478# m1_n3218_15478# m1_2590_19404# m1_2590_19404# m1_2822_20470#
+ vss nfet$170
Xnfet$156_0 sd9 vss m1_n7401_15478# vss nfet$156
Xpfet$162_3 vdd m1_n3184_24224# m1_n3651_26174# m1_n4623_25487# pfet$162
Xnfet$151_17 m1_12935_21590# m1_12935_21590# m1_14422_22513# m1_14422_22513# m1_13394_21586#
+ vss nfet$151
Xpfet$148_1 vdd vdd m1_n1134_25662# m1_n1271_25858# pfet$148
Xpfet$141_8 vdd vdd m1_9331_15478# sd5 pfet$141
Xpfet$148_10 vdd vdd m1_35071_24542# m1_32675_25947# pfet$148
Xpfet$160_0 vdd vdd m1_n7513_20152# m1_35837_22102# pfet$160
Xnfet$162_16 m1_28624_21786# m1_28624_21786# vss vss m1_27462_21586# vss nfet$162
Xpfet$145_11 vdd vdd m1_26807_17518# m1_26217_17714# pfet$145
Xnfet$154_17 m1_25107_21786# vss m1_25739_21786# vss nfet$154
Xnfet$170_16 m1_25722_20152# m1_25722_20152# m1_n3206_20274# m1_n3206_20274# m1_24556_20470#
+ vss nfet$170
Xnfet$172_6 m1_27190_17836# m1_28113_15778# m1_27292_16202# vss nfet$172
Xnfet$158_4 m1_n789_25858# vss m1_1607_24542# vss nfet$158
Xpfet$142_34 vdd vdd vdd m1_28090_22402# m1_26873_21786# m1_26873_21786# pfet$142
Xpfet$142_23 vdd vdd vdd m1_23945_22102# m1_23486_21590# m1_23486_21590# pfet$142
Xpfet$164_7 vdd vdd m1_n10452_25858# m1_n4978_24224# pfet$164
Xpfet$142_12 vdd vdd vdd m1_3471_22402# m1_2254_21786# m1_2254_21786# pfet$142
Xnfet$149_17 m1_20625_24224# m1_20625_24224# m1_20269_24542# m1_20269_24542# m1_20723_24542#
+ vss nfet$149
Xnfet$156_1 sd2 vss m1_21880_15478# vss nfet$156
Xnfet$163_2 m1_17939_22513# m1_17939_22513# vss vss m1_31771_20470# vss nfet$163
Xnfet$170_3 m1_8137_20152# m1_8137_20152# m1_6107_19404# m1_6107_19404# m1_6971_20470#
+ vss nfet$170
Xnfet$149_0 m1_4509_24346# m1_4509_24346# vss vss m1_3991_24542# vss nfet$149
Xpfet$162_4 vdd m1_n2567_23922# m1_n3184_24224# m1_n4464_25980# pfet$162
Xpfet$148_2 vdd vdd m1_n1271_25858# m1_n10452_25858# pfet$148
Xpfet$141_9 vdd vdd m1_8172_15778# m1_5302_17714# pfet$141
Xpfet$148_11 vdd vdd m1_32817_25662# m1_32675_25947# pfet$148
Xpfet$153_0 vdd vdd m1_n1263_21786# pd1 pfet$153
Xnfet$162_17 m1_29256_21786# m1_29256_21786# vss vss m1_28094_21586# vss nfet$162
Xpfet$145_12 vdd vdd m1_26676_16080# m1_n7513_20152# pfet$145
Xnfet$179_0 m1_n10933_25858# m1_n8848_25658# m1_n8055_24542# vss nfet$179
Xnfet$170_17 m1_21880_15478# m1_21880_15478# m1_n3206_20274# m1_n3206_20274# m1_23924_20470#
+ vss nfet$170
Xnfet$172_7 m1_27190_17836# m1_28470_16080# m1_28003_18030# vss nfet$172
Xnfet$158_5 m1_n789_25858# vss m1_488_21786# vss nfet$158
Xpfet$142_35 vdd vdd vdd m1_13394_22102# m1_12935_21590# m1_12935_21590# pfet$142
Xnfet$149_18 m1_21241_24346# m1_21241_24346# vss vss m1_20723_24542# vss nfet$149
Xpfet$142_24 vdd m1_17939_22513# m1_17939_22513# m1_16911_22102# m1_18705_21786# m1_18705_21786#
+ pfet$142
Xpfet$142_13 vdd vdd vdd m1_6988_22402# m1_5771_21786# m1_5771_21786# pfet$142
Xnfet$156_2 sd1 vss m1_26063_15478# vss nfet$156
Xnfet$163_3 m1_24973_22513# m1_24973_22513# vss vss m1_30492_20470# vss nfet$163
Xnfet$170_4 m1_965_15478# m1_965_15478# m1_6107_19404# m1_6107_19404# m1_6339_20470#
+ vss nfet$170
Xnfet$149_1 m1_3893_24224# m1_3893_24224# m1_3537_24542# m1_3537_24542# m1_3991_24542#
+ vss nfet$149
Xpfet$148_3 vdd vdd m1_1607_24542# m1_n789_25858# pfet$148
Xpfet$162_5 vdd m1_n10572_23922# m1_n10308_24542# m1_n10933_25858# pfet$162
Xpfet$148_12 vdd vdd m1_32193_25858# m1_25107_21786# pfet$148
Xnfet$161_0 m1_n290_24224# m1_n290_24224# m1_n646_24542# m1_n646_24542# m1_n192_24542#
+ vss nfet$161
Xpfet$153_1 vdd vdd m1_2254_21786# pd2 pfet$153
Xpfet$146_0 vdd vdd m1_2384_19550# m1_n3534_17714# pfet$146
Xpfet$140_90 vdd vdd m1_24309_25858# m1_25424_24346# pfet$140
Xpfet$145_13 vdd vdd m1_25747_17714# m1_26217_17714# pfet$145
Xnfet$179_1 m1_n10796_25662# m1_n10572_23922# m1_n10308_24542# vss nfet$179
Xnfet$158_6 m1_n910_23922# vss m1_n290_24224# vss nfet$158
Xnfet$149_19 m1_21729_25658# m1_21729_25658# vss vss m1_22188_25502# vss nfet$149
Xpfet$142_25 vdd m1_17939_22513# m1_17939_22513# m1_17539_22402# m1_18073_21786# m1_18073_21786#
+ pfet$142
Xpfet$142_14 vdd vdd vdd m1_n46_22402# m1_n1263_21786# m1_n1263_21786# pfet$142
Xnfet$163_4 m1_32818_20470# m1_32818_20470# vss vss m1_34329_20470# vss nfet$163
Xnfet$149_2 m1_4997_25658# m1_4997_25658# vss vss m1_5456_25502# vss nfet$149
Xnfet$170_5 m1_5148_15478# m1_5148_15478# m1_9624_19404# m1_9624_19404# m1_9856_20470#
+ vss nfet$170
Xpfet$148_4 vdd vdd m1_488_21786# m1_n789_25858# pfet$148
Xpfet$162_6 vdd m1_n8848_25658# m1_n8055_24542# m1_n10796_25662# pfet$162
Xnfet$161_1 m1_814_25658# m1_814_25658# vss vss m1_1273_25502# vss nfet$161
Xnfet$154_0 m1_n1263_21786# vss m1_n1133_21590# vss nfet$154
Xpfet$148_13 vdd vdd m1_33790_24346# m1_n7513_20152# pfet$148
Xpfet$153_2 vdd vdd m1_26873_21786# pd9 pfet$153
Xpfet$146_1 vdd vdd m1_4620_20152# m1_n3218_15478# pfet$146
Xpfet$140_91 vdd vdd m1_23356_21786# pd8 pfet$140
Xpfet$140_80 vdd vdd m1_17058_24346# m1_n7513_20152# pfet$140
Xnfet$179_2 m1_n10933_25858# m1_n10309_25662# m1_n10572_23922# vss nfet$179
Xnfet$158_7 m1_25107_21786# vss m1_32193_25858# vss nfet$158
Xpfet$142_26 vdd vdd vdd m1_16911_22102# m1_16452_21590# m1_16452_21590# pfet$142
Xpfet$142_15 vdd m1_354_22513# m1_354_22513# m1_n46_22402# m1_488_21786# m1_488_21786#
+ pfet$142
Xnfet$184_0 m1_n4485_20152# m1_n6380_21786# vss vss nfet$184
Xpfet$169_0 vdd m1_n6380_21786# m1_n6380_21786# m1_n5019_19550# m1_n5227_20152# m1_n5227_20152#
+ pfet$169
Xnfet$170_6 m1_11654_20152# m1_11654_20152# m1_9624_19404# m1_9624_19404# m1_10488_20470#
+ vss nfet$170
Xnfet$163_5 m1_32818_21586# m1_32818_21586# m1_34093_19792# m1_34093_19792# m1_34329_20470#
+ vss nfet$163
Xpfet$148_5 vdd vdd m1_326_24346# m1_n7513_20152# pfet$148
Xnfet$149_3 m1_4509_24346# m1_4509_24346# m1_3394_25858# m1_3394_25858# m1_5456_25502#
+ vss nfet$149
Xpfet$162_7 vdd m1_n3541_23922# m1_n4362_24346# m1_n4623_25487# pfet$162
Xnfet$161_2 m1_326_24346# m1_326_24346# m1_n789_25858# m1_n789_25858# m1_1273_25502#
+ vss nfet$161
Xnfet$154_1 m1_11039_21786# vss m1_11671_21786# vss nfet$154
Xpfet$146_2 vdd vdd m1_1103_20152# m1_n7401_15478# pfet$146
Xpfet$140_92 vdd vdd m1_28492_25858# m1_29607_24346# pfet$140
Xpfet$140_81 vdd vdd m1_18339_24542# m1_15943_25858# pfet$140
Xpfet$140_70 vdd vdd m1_14156_24542# m1_11760_25858# pfet$140
Xpfet$151_0 vdd m1_31535_19792# vdd m1_17939_22513# pfet$151
Xnfet$179_3 m1_n10796_25662# m1_n9952_24224# m1_n8848_25658# vss nfet$179
Xnfet$158_8 m1_32193_25858# vss m1_32330_25662# vss nfet$158
Xpfet$142_27 vdd m1_14422_22513# m1_14422_22513# m1_14022_22402# m1_14556_21786# m1_14556_21786#
+ pfet$142
Xpfet$142_16 vdd m1_24973_22513# m1_24973_22513# m1_23945_22102# m1_25739_21786# m1_25739_21786#
+ pfet$142
Xnfet$184_1 m1_n5227_20152# vss m1_n6380_21786# vss nfet$184
Xnfet$177_0 m1_n8625_26174# vss m1_n8055_24542# vss nfet$177
Xpfet$169_1 vdd vdd vdd m1_n5019_22344# m1_n4485_21904# m1_n4485_21904# pfet$169
Xnfet$163_6 m1_354_22513# m1_354_22513# m1_31535_22102# m1_31535_22102# m1_31771_21430#
+ vss nfet$163
Xnfet$170_7 m1_n7401_15478# m1_n7401_15478# m1_n927_19404# m1_n927_19404# m1_n695_20470#
+ vss nfet$170
Xnfet$149_4 m1_12259_24224# m1_12259_24224# m1_11903_24542# m1_11903_24542# m1_12357_24542#
+ vss nfet$149
Xpfet$148_6 vdd vdd m1_n290_24224# m1_n910_23922# pfet$148
Xnfet$161_3 m1_326_24346# m1_326_24346# vss vss m1_n192_24542# vss nfet$161
Xnfet$154_2 m1_12805_21786# vss m1_12935_21590# vss nfet$154
Xpfet$146_3 vdd vdd m1_5901_19550# m1_649_17714# pfet$146
Xnfet$152_10 m1_9015_17714# m1_9015_17714# vss vss m1_14005_20470# vss nfet$152
Xpfet$140_93 vdd m1_28991_24224# m1_30095_25658# m1_28010_25858# pfet$140
Xpfet$140_82 vdd vdd m1_21241_24346# m1_n7513_20152# pfet$140
Xpfet$140_71 vdd vdd m1_11039_21786# m1_11760_25858# pfet$140
Xpfet$140_60 vdd vdd m1_20126_25858# m1_21241_24346# pfet$140
Xpfet$151_1 vdd vdd m1_30256_19792# m1_21456_22513# pfet$151
Xpfet$144_0 vdd vdd m1_n1133_21590# m1_n1263_21786# pfet$144
Xnfet$179_4 m1_n4623_25487# m1_n2567_23922# m1_n3184_24224# vss nfet$179
Xnfet$158_9 m1_n7513_20152# vss m1_33790_24346# vss nfet$158