* NGSPICE file created from top_level_20250912_sc.ext - technology: gf180mcuD

.subckt nfet$280 a_38_n60# a_n84_0# a_138_0# VSUBS
X0 a_138_0# a_38_n60# a_n84_0# VSUBS nfet_03v3 ad=0.61p pd=3.22u as=0.61p ps=3.22u w=1u l=0.5u
.ends

.subckt pfet$258 a_750_0# a_546_0# w_n180_n88# a_n92_0# a_446_n136# a_650_n136# a_342_0#
+ a_138_0# a_38_n136# a_242_n136#
X0 a_342_0# a_242_n136# a_138_0# w_n180_n88# pfet_03v3 ad=3.12p pd=12.52u as=3.12p ps=12.52u w=12u l=0.5u
X1 a_546_0# a_446_n136# a_342_0# w_n180_n88# pfet_03v3 ad=3.12p pd=12.52u as=3.12p ps=12.52u w=12u l=0.5u
X2 a_138_0# a_38_n136# a_n92_0# w_n180_n88# pfet_03v3 ad=3.12p pd=12.52u as=7.8p ps=25.3u w=12u l=0.5u
X3 a_750_0# a_650_n136# a_546_0# w_n180_n88# pfet_03v3 ad=7.8p pd=25.3u as=3.12p ps=12.52u w=12u l=0.5u
.ends

.subckt pfet$261 w_n180_n88# a_n92_0# a_138_0# a_38_n136#
X0 a_138_0# a_38_n136# a_n92_0# w_n180_n88# pfet_03v3 ad=1.95p pd=7.3u as=1.95p ps=7.3u w=3u l=0.5u
.ends

.subckt nfet$278 a_38_n60# a_n84_0# a_138_0# VSUBS
X0 a_138_0# a_38_n60# a_n84_0# VSUBS nfet_03v3 ad=2.44p pd=9.22u as=2.44p ps=9.22u w=4u l=0.5u
.ends

.subckt nfet$276 a_750_0# a_546_0# a_446_n60# a_242_n60# a_38_n60# a_n84_0# a_342_0#
+ a_138_0# a_650_n60# VSUBS
X0 a_342_0# a_242_n60# a_138_0# VSUBS nfet_03v3 ad=1.04p pd=4.52u as=1.04p ps=4.52u w=4u l=0.5u
X1 a_546_0# a_446_n60# a_342_0# VSUBS nfet_03v3 ad=1.04p pd=4.52u as=1.04p ps=4.52u w=4u l=0.5u
X2 a_138_0# a_38_n60# a_n84_0# VSUBS nfet_03v3 ad=1.04p pd=4.52u as=2.44p ps=9.22u w=4u l=0.5u
X3 a_750_0# a_650_n60# a_546_0# VSUBS nfet_03v3 ad=2.44p pd=9.22u as=1.04p ps=4.52u w=4u l=0.5u
.ends

.subckt pfet$259 w_n180_n88# a_n92_0# a_138_0# a_38_n136#
X0 a_138_0# a_38_n136# a_n92_0# w_n180_n88# pfet_03v3 ad=7.8p pd=25.3u as=7.8p ps=25.3u w=12u l=0.5u
.ends

.subckt pfet$257 a_1158_0# a_750_0# a_1058_n136# a_546_0# a_1262_n136# a_1566_0# a_954_0#
+ w_n180_n88# a_854_n136# a_n92_0# a_446_n136# a_650_n136# a_342_0# a_1466_n136# a_138_0#
+ a_38_n136# a_1362_0# a_242_n136#
X0 a_1362_0# a_1262_n136# a_1158_0# w_n180_n88# pfet_03v3 ad=3.12p pd=12.52u as=3.12p ps=12.52u w=12u l=0.5u
X1 a_954_0# a_854_n136# a_750_0# w_n180_n88# pfet_03v3 ad=3.12p pd=12.52u as=3.12p ps=12.52u w=12u l=0.5u
X2 a_1566_0# a_1466_n136# a_1362_0# w_n180_n88# pfet_03v3 ad=7.8p pd=25.3u as=3.12p ps=12.52u w=12u l=0.5u
X3 a_342_0# a_242_n136# a_138_0# w_n180_n88# pfet_03v3 ad=3.12p pd=12.52u as=3.12p ps=12.52u w=12u l=0.5u
X4 a_546_0# a_446_n136# a_342_0# w_n180_n88# pfet_03v3 ad=3.12p pd=12.52u as=3.12p ps=12.52u w=12u l=0.5u
X5 a_1158_0# a_1058_n136# a_954_0# w_n180_n88# pfet_03v3 ad=3.12p pd=12.52u as=3.12p ps=12.52u w=12u l=0.5u
X6 a_138_0# a_38_n136# a_n92_0# w_n180_n88# pfet_03v3 ad=3.12p pd=12.52u as=7.8p ps=25.3u w=12u l=0.5u
X7 a_750_0# a_650_n136# a_546_0# w_n180_n88# pfet_03v3 ad=3.12p pd=12.52u as=3.12p ps=12.52u w=12u l=0.5u
.ends

.subckt pfet$260 w_n180_n88# a_n92_0# a_138_0# a_38_n136#
X0 a_138_0# a_38_n136# a_n92_0# w_n180_n88# pfet_03v3 ad=1.95p pd=7.3u as=1.95p ps=7.3u w=3u l=0.5u
.ends

.subckt nfet$279 a_38_n60# a_n84_0# a_138_0# VSUBS
X0 a_138_0# a_38_n60# a_n84_0# VSUBS nfet_03v3 ad=0.61p pd=3.22u as=0.61p ps=3.22u w=1u l=0.5u
.ends

.subckt nfet$277 a_1158_0# a_750_0# a_546_0# a_446_n60# a_242_n60# a_1566_0# a_954_0#
+ a_1466_n60# a_1262_n60# a_38_n60# a_n84_0# a_1058_n60# a_854_n60# a_342_0# a_138_0#
+ a_650_n60# a_1362_0# VSUBS
X0 a_954_0# a_854_n60# a_750_0# VSUBS nfet_03v3 ad=1.04p pd=4.52u as=1.04p ps=4.52u w=4u l=0.5u
X1 a_1566_0# a_1466_n60# a_1362_0# VSUBS nfet_03v3 ad=2.44p pd=9.22u as=1.04p ps=4.52u w=4u l=0.5u
X2 a_342_0# a_242_n60# a_138_0# VSUBS nfet_03v3 ad=1.04p pd=4.52u as=1.04p ps=4.52u w=4u l=0.5u
X3 a_546_0# a_446_n60# a_342_0# VSUBS nfet_03v3 ad=1.04p pd=4.52u as=1.04p ps=4.52u w=4u l=0.5u
X4 a_1158_0# a_1058_n60# a_954_0# VSUBS nfet_03v3 ad=1.04p pd=4.52u as=1.04p ps=4.52u w=4u l=0.5u
X5 a_138_0# a_38_n60# a_n84_0# VSUBS nfet_03v3 ad=1.04p pd=4.52u as=2.44p ps=9.22u w=4u l=0.5u
X6 a_750_0# a_650_n60# a_546_0# VSUBS nfet_03v3 ad=1.04p pd=4.52u as=1.04p ps=4.52u w=4u l=0.5u
X7 a_1362_0# a_1262_n60# a_1158_0# VSUBS nfet_03v3 ad=1.04p pd=4.52u as=1.04p ps=4.52u w=4u l=0.5u
.ends

.subckt asc_drive_buffer_up vss out in vdd
Xnfet$280_0 in vss m1_n566_1318# vss nfet$280
Xpfet$258_0 m1_778_712# vdd vdd m1_778_712# m1_506_712# m1_506_712# m1_778_712# vdd
+ m1_506_712# m1_506_712# pfet$258
Xpfet$261_0 vdd vdd m1_n566_1318# in pfet$261
Xnfet$278_0 m1_n30_1318# vss m1_506_712# vss nfet$278
Xnfet$276_0 m1_778_712# vss m1_506_712# m1_506_712# m1_506_712# m1_778_712# m1_778_712#
+ vss m1_506_712# vss nfet$276
Xpfet$259_0 vdd vdd m1_506_712# m1_n30_1318# pfet$259
Xpfet$257_0 out out m1_778_712# vdd m1_778_712# out vdd vdd m1_778_712# out m1_778_712#
+ m1_778_712# out m1_778_712# vdd m1_778_712# vdd m1_778_712# pfet$257
Xpfet$260_0 vdd vdd m1_n30_1318# m1_n566_1318# pfet$260
Xnfet$279_0 m1_n566_1318# vss m1_n30_1318# vss nfet$279
Xnfet$277_0 out out vss m1_778_712# m1_778_712# out vss m1_778_712# m1_778_712# m1_778_712#
+ out m1_778_712# m1_778_712# out vss m1_778_712# vss vss nfet$277
.ends

.subckt pfet$196 w_n180_n88# a_n92_0# a_138_0# a_38_n136#
X0 a_138_0# a_38_n136# a_n92_0# w_n180_n88# pfet_03v3 ad=1.95p pd=7.3u as=1.95p ps=7.3u w=3u l=0.5u
.ends

.subckt nfet$238 a_242_n60# a_38_n60# a_n84_0# a_342_0# a_138_0# VSUBS
X0 a_342_0# a_242_n60# a_138_0# VSUBS nfet_03v3 ad=0.61p pd=3.22u as=0.26p ps=1.52u w=1u l=0.5u
X1 a_138_0# a_38_n60# a_n84_0# VSUBS nfet_03v3 ad=0.26p pd=1.52u as=0.61p ps=3.22u w=1u l=0.5u
.ends

.subckt nfet$212 a_38_n60# a_n84_0# a_138_0# VSUBS
X0 a_138_0# a_38_n60# a_n84_0# VSUBS nfet_03v3 ad=0.61p pd=3.22u as=0.61p ps=3.22u w=1u l=0.5u
.ends

.subckt nfet$224 a_242_n60# a_38_n60# a_n84_0# a_342_0# a_138_0# VSUBS
X0 a_342_0# a_242_n60# a_138_0# VSUBS nfet_03v3 ad=0.61p pd=3.22u as=0.26p ps=1.52u w=1u l=0.5u
X1 a_138_0# a_38_n60# a_n84_0# VSUBS nfet_03v3 ad=0.26p pd=1.52u as=0.61p ps=3.22u w=1u l=0.5u
.ends

.subckt nfet$217 a_38_n60# a_n84_0# a_138_0# VSUBS
X0 a_138_0# a_38_n60# a_n84_0# VSUBS nfet_03v3 ad=0.61p pd=3.22u as=0.61p ps=3.22u w=1u l=0.5u
.ends

.subckt nfet$231 a_242_n60# a_38_n60# a_n84_0# a_342_0# a_138_0# VSUBS
X0 a_342_0# a_242_n60# a_138_0# VSUBS nfet_03v3 ad=0.61p pd=3.22u as=0.26p ps=1.52u w=1u l=0.5u
X1 a_138_0# a_38_n60# a_n84_0# VSUBS nfet_03v3 ad=0.26p pd=1.52u as=0.61p ps=3.22u w=1u l=0.5u
.ends

.subckt pfet$207 w_n180_n88# a_n92_0# a_138_0# a_38_n136#
X0 a_138_0# a_38_n136# a_n92_0# w_n180_n88# pfet_03v3 ad=1.95p pd=7.3u as=1.95p ps=7.3u w=3u l=0.5u
.ends

.subckt pfet$214 w_n180_n88# a_n92_0# a_138_0# a_38_n136#
X0 a_138_0# a_38_n136# a_n92_0# w_n180_n88# pfet_03v3 ad=1.95p pd=7.3u as=1.95p ps=7.3u w=3u l=0.5u
.ends

.subckt nfet$215 a_38_n60# a_n84_0# a_138_0# VSUBS
X0 a_138_0# a_38_n60# a_n84_0# VSUBS nfet_03v3 ad=0.61p pd=3.22u as=0.61p ps=3.22u w=1u l=0.5u
.ends

.subckt pfet$221 w_n180_n88# a_n92_0# a_138_0# a_38_n136#
X0 a_138_0# a_38_n136# a_n92_0# w_n180_n88# pfet_03v3 ad=1.95p pd=7.3u as=1.95p ps=7.3u w=3u l=0.5u
.ends

.subckt pfet$197 w_n180_n88# a_n92_0# a_138_0# a_38_n136#
X0 a_138_0# a_38_n136# a_n92_0# w_n180_n88# pfet_03v3 ad=1.95p pd=7.3u as=1.95p ps=7.3u w=3u l=0.5u
.ends

.subckt nfet$213 a_242_n60# a_38_n60# a_n84_0# a_342_0# a_138_0# VSUBS
X0 a_342_0# a_242_n60# a_138_0# VSUBS nfet_03v3 ad=0.61p pd=3.22u as=0.26p ps=1.52u w=1u l=0.5u
X1 a_138_0# a_38_n60# a_n84_0# VSUBS nfet_03v3 ad=0.26p pd=1.52u as=0.61p ps=3.22u w=1u l=0.5u
.ends

.subckt nfet$220 a_38_n60# a_n84_0# a_138_0# VSUBS
X0 a_138_0# a_38_n60# a_n84_0# VSUBS nfet_03v3 ad=0.61p pd=3.22u as=0.61p ps=3.22u w=1u l=0.5u
.ends

.subckt pfet$205 w_n180_n88# a_n92_0# a_138_0# a_38_n136#
X0 a_138_0# a_38_n136# a_n92_0# w_n180_n88# pfet_03v3 ad=1.95p pd=7.3u as=1.95p ps=7.3u w=3u l=0.5u
.ends

.subckt pfet$202 w_n180_n88# a_n92_0# a_138_0# a_38_n136#
X0 a_138_0# a_38_n136# a_n92_0# w_n180_n88# pfet_03v3 ad=1.95p pd=7.3u as=1.95p ps=7.3u w=3u l=0.5u
.ends

.subckt nfet$211 a_242_n60# a_38_n60# a_n84_0# a_342_0# a_138_0# VSUBS
X0 a_342_0# a_242_n60# a_138_0# VSUBS nfet_03v3 ad=0.61p pd=3.22u as=0.26p ps=1.52u w=1u l=0.5u
X1 a_138_0# a_38_n60# a_n84_0# VSUBS nfet_03v3 ad=0.26p pd=1.52u as=0.61p ps=3.22u w=1u l=0.5u
.ends

.subckt pfet$199 w_n180_n88# a_n92_0# a_342_0# a_138_0# a_38_n136# a_242_n136#
X0 a_342_0# a_242_n136# a_138_0# w_n180_n88# pfet_03v3 ad=1.95p pd=7.3u as=0.78p ps=3.52u w=3u l=0.5u
X1 a_138_0# a_38_n136# a_n92_0# w_n180_n88# pfet_03v3 ad=0.78p pd=3.52u as=1.95p ps=7.3u w=3u l=0.5u
.ends

.subckt nfet$243 a_38_n60# a_n84_0# a_138_0# VSUBS
X0 a_138_0# a_38_n60# a_n84_0# VSUBS nfet_03v3 ad=0.61p pd=3.22u as=0.61p ps=3.22u w=1u l=0.5u
.ends

.subckt pfet$228 w_n180_n88# a_n92_0# a_138_0# a_38_n136#
X0 a_138_0# a_38_n136# a_n92_0# w_n180_n88# pfet_03v3 ad=1.95p pd=7.3u as=1.95p ps=7.3u w=3u l=0.5u
.ends

.subckt pfet$210 w_n180_n88# a_n92_0# a_138_0# a_38_n136#
X0 a_138_0# a_38_n136# a_n92_0# w_n180_n88# pfet_03v3 ad=1.95p pd=7.3u as=1.95p ps=7.3u w=3u l=0.5u
.ends

.subckt nfet$236 a_242_n60# a_38_n60# a_n84_0# a_342_0# a_138_0# VSUBS
X0 a_342_0# a_242_n60# a_138_0# VSUBS nfet_03v3 ad=0.61p pd=3.22u as=0.26p ps=1.52u w=1u l=0.5u
X1 a_138_0# a_38_n60# a_n84_0# VSUBS nfet_03v3 ad=0.26p pd=1.52u as=0.61p ps=3.22u w=1u l=0.5u
.ends

.subckt pfet$203 w_n180_n88# a_n92_0# a_138_0# a_38_n136#
X0 a_138_0# a_38_n136# a_n92_0# w_n180_n88# pfet_03v3 ad=1.95p pd=7.3u as=1.95p ps=7.3u w=3u l=0.5u
.ends

.subckt nfet$229 a_38_n60# a_n84_0# a_138_0# VSUBS
X0 a_138_0# a_38_n60# a_n84_0# VSUBS nfet_03v3 ad=0.61p pd=3.22u as=0.61p ps=3.22u w=1u l=0.5u
.ends

.subckt nfet$241 a_38_n60# a_n84_0# a_138_0# VSUBS
X0 a_138_0# a_38_n60# a_n84_0# VSUBS nfet_03v3 ad=0.61p pd=3.22u as=0.61p ps=3.22u w=1u l=0.5u
.ends

.subckt pfet$226 w_n180_n88# a_n92_0# a_138_0# a_38_n136#
X0 a_138_0# a_38_n136# a_n92_0# w_n180_n88# pfet_03v3 ad=1.95p pd=7.3u as=1.95p ps=7.3u w=3u l=0.5u
.ends

.subckt nfet$234 a_38_n60# a_n84_0# a_138_0# VSUBS
X0 a_138_0# a_38_n60# a_n84_0# VSUBS nfet_03v3 ad=0.61p pd=3.22u as=0.61p ps=3.22u w=1u l=0.5u
.ends

.subckt pfet$219 w_n180_n88# a_n92_0# a_138_0# a_38_n136#
X0 a_138_0# a_38_n136# a_n92_0# w_n180_n88# pfet_03v3 ad=1.95p pd=7.3u as=1.95p ps=7.3u w=3u l=0.5u
.ends

.subckt pfet$201 w_n180_n88# a_n92_0# a_138_0# a_38_n136#
X0 a_138_0# a_38_n136# a_n92_0# w_n180_n88# pfet_03v3 ad=1.95p pd=7.3u as=1.95p ps=7.3u w=3u l=0.5u
.ends

.subckt nfet$227 a_38_n60# a_n84_0# a_138_0# VSUBS
X0 a_138_0# a_38_n60# a_n84_0# VSUBS nfet_03v3 ad=0.61p pd=3.22u as=0.61p ps=3.22u w=1u l=0.5u
.ends

.subckt pfet$224 w_n180_n88# a_n92_0# a_342_0# a_138_0# a_38_n136# a_242_n136#
X0 a_342_0# a_242_n136# a_138_0# w_n180_n88# pfet_03v3 ad=1.95p pd=7.3u as=0.78p ps=3.52u w=3u l=0.5u
X1 a_138_0# a_38_n136# a_n92_0# w_n180_n88# pfet_03v3 ad=0.78p pd=3.52u as=1.95p ps=7.3u w=3u l=0.5u
.ends

.subckt nfet$232 a_242_n60# a_38_n60# a_n84_0# a_342_0# a_138_0# VSUBS
X0 a_342_0# a_242_n60# a_138_0# VSUBS nfet_03v3 ad=0.61p pd=3.22u as=0.26p ps=1.52u w=1u l=0.5u
X1 a_138_0# a_38_n60# a_n84_0# VSUBS nfet_03v3 ad=0.26p pd=1.52u as=0.61p ps=3.22u w=1u l=0.5u
.ends

.subckt pfet$217 w_n180_n88# a_n92_0# a_342_0# a_138_0# a_38_n136# a_242_n136#
X0 a_342_0# a_242_n136# a_138_0# w_n180_n88# pfet_03v3 ad=1.95p pd=7.3u as=0.78p ps=3.52u w=3u l=0.5u
X1 a_138_0# a_38_n136# a_n92_0# w_n180_n88# pfet_03v3 ad=0.78p pd=3.52u as=1.95p ps=7.3u w=3u l=0.5u
.ends

.subckt pfet$200 w_n180_n88# a_n92_0# a_138_0# a_38_n136#
X0 a_138_0# a_38_n136# a_n92_0# w_n180_n88# pfet_03v3 ad=1.95p pd=7.3u as=1.95p ps=7.3u w=3u l=0.5u
.ends

.subckt nfet$225 a_242_n60# a_38_n60# a_n84_0# a_342_0# a_138_0# VSUBS
X0 a_342_0# a_242_n60# a_138_0# VSUBS nfet_03v3 ad=0.61p pd=3.22u as=0.26p ps=1.52u w=1u l=0.5u
X1 a_138_0# a_38_n60# a_n84_0# VSUBS nfet_03v3 ad=0.26p pd=1.52u as=0.61p ps=3.22u w=1u l=0.5u
.ends

.subckt nfet$218 a_38_n60# a_n84_0# a_138_0# VSUBS
X0 a_138_0# a_38_n60# a_n84_0# VSUBS nfet_03v3 ad=0.61p pd=3.22u as=0.61p ps=3.22u w=1u l=0.5u
.ends

.subckt pfet$222 w_n180_n88# a_n92_0# a_138_0# a_38_n136#
X0 a_138_0# a_38_n136# a_n92_0# w_n180_n88# pfet_03v3 ad=1.95p pd=7.3u as=1.95p ps=7.3u w=3u l=0.5u
.ends

.subckt nfet$230 a_38_n60# a_n84_0# a_138_0# VSUBS
X0 a_138_0# a_38_n60# a_n84_0# VSUBS nfet_03v3 ad=0.61p pd=3.22u as=0.61p ps=3.22u w=1u l=0.5u
.ends

.subckt pfet$215 w_n180_n88# a_n92_0# a_138_0# a_38_n136#
X0 a_138_0# a_38_n136# a_n92_0# w_n180_n88# pfet_03v3 ad=1.95p pd=7.3u as=1.95p ps=7.3u w=3u l=0.5u
.ends

.subckt nfet$223 a_242_n60# a_38_n60# a_n84_0# a_342_0# a_138_0# VSUBS
X0 a_342_0# a_242_n60# a_138_0# VSUBS nfet_03v3 ad=0.61p pd=3.22u as=0.26p ps=1.52u w=1u l=0.5u
X1 a_138_0# a_38_n60# a_n84_0# VSUBS nfet_03v3 ad=0.26p pd=1.52u as=0.61p ps=3.22u w=1u l=0.5u
.ends

.subckt pfet$208 w_n180_n88# a_n92_0# a_138_0# a_38_n136#
X0 a_138_0# a_38_n136# a_n92_0# w_n180_n88# pfet_03v3 ad=1.95p pd=7.3u as=1.95p ps=7.3u w=3u l=0.5u
.ends

.subckt nfet$216 a_38_n60# a_n84_0# a_138_0# VSUBS
X0 a_138_0# a_38_n60# a_n84_0# VSUBS nfet_03v3 ad=0.61p pd=3.22u as=0.61p ps=3.22u w=1u l=0.5u
.ends

.subckt pfet$220 w_n180_n88# a_n92_0# a_138_0# a_38_n136#
X0 a_138_0# a_38_n136# a_n92_0# w_n180_n88# pfet_03v3 ad=1.95p pd=7.3u as=1.95p ps=7.3u w=3u l=0.5u
.ends

.subckt nfet$246 a_38_n60# a_n84_0# a_138_0# VSUBS
X0 a_138_0# a_38_n60# a_n84_0# VSUBS nfet_03v3 ad=0.61p pd=3.22u as=0.61p ps=3.22u w=1u l=0.5u
.ends

.subckt pfet$213 w_n180_n88# a_n92_0# a_342_0# a_138_0# a_38_n136# a_242_n136#
X0 a_342_0# a_242_n136# a_138_0# w_n180_n88# pfet_03v3 ad=1.95p pd=7.3u as=0.78p ps=3.52u w=3u l=0.5u
X1 a_138_0# a_38_n136# a_n92_0# w_n180_n88# pfet_03v3 ad=0.78p pd=3.52u as=1.95p ps=7.3u w=3u l=0.5u
.ends

.subckt nfet$239 a_38_n60# a_n84_0# a_138_0# VSUBS
X0 a_138_0# a_38_n60# a_n84_0# VSUBS nfet_03v3 ad=0.61p pd=3.22u as=0.61p ps=3.22u w=1u l=0.5u
.ends

.subckt nfet$221 a_38_n60# a_n84_0# a_138_0# VSUBS
X0 a_138_0# a_38_n60# a_n84_0# VSUBS nfet_03v3 ad=0.61p pd=3.22u as=0.61p ps=3.22u w=1u l=0.5u
.ends

.subckt pfet$206 w_n180_n88# a_n92_0# a_342_0# a_138_0# a_38_n136# a_242_n136#
X0 a_342_0# a_242_n136# a_138_0# w_n180_n88# pfet_03v3 ad=1.95p pd=7.3u as=0.78p ps=3.52u w=3u l=0.5u
X1 a_138_0# a_38_n136# a_n92_0# w_n180_n88# pfet_03v3 ad=0.78p pd=3.52u as=1.95p ps=7.3u w=3u l=0.5u
.ends

.subckt pfet$198 w_n180_n88# a_n92_0# a_342_0# a_138_0# a_38_n136# a_242_n136#
X0 a_342_0# a_242_n136# a_138_0# w_n180_n88# pfet_03v3 ad=1.95p pd=7.3u as=0.78p ps=3.52u w=3u l=0.5u
X1 a_138_0# a_38_n136# a_n92_0# w_n180_n88# pfet_03v3 ad=0.78p pd=3.52u as=1.95p ps=7.3u w=3u l=0.5u
.ends

.subckt nfet$214 a_242_n60# a_38_n60# a_n84_0# a_342_0# a_138_0# VSUBS
X0 a_342_0# a_242_n60# a_138_0# VSUBS nfet_03v3 ad=0.61p pd=3.22u as=0.26p ps=1.52u w=1u l=0.5u
X1 a_138_0# a_38_n60# a_n84_0# VSUBS nfet_03v3 ad=0.26p pd=1.52u as=0.61p ps=3.22u w=1u l=0.5u
.ends

.subckt nfet$244 a_38_n60# a_n84_0# a_138_0# VSUBS
X0 a_138_0# a_38_n60# a_n84_0# VSUBS nfet_03v3 ad=0.61p pd=3.22u as=0.61p ps=3.22u w=1u l=0.5u
.ends

.subckt nfet$219 a_38_n60# a_n84_0# a_138_0# VSUBS
X0 a_138_0# a_38_n60# a_n84_0# VSUBS nfet_03v3 ad=0.61p pd=3.22u as=0.61p ps=3.22u w=1u l=0.5u
.ends

.subckt pfet$211 w_n180_n88# a_n92_0# a_342_0# a_138_0# a_38_n136# a_242_n136#
X0 a_342_0# a_242_n136# a_138_0# w_n180_n88# pfet_03v3 ad=1.95p pd=7.3u as=0.78p ps=3.52u w=3u l=0.5u
X1 a_138_0# a_38_n136# a_n92_0# w_n180_n88# pfet_03v3 ad=0.78p pd=3.52u as=1.95p ps=7.3u w=3u l=0.5u
.ends

.subckt nfet$237 a_38_n60# a_n84_0# a_138_0# VSUBS
X0 a_138_0# a_38_n60# a_n84_0# VSUBS nfet_03v3 ad=0.61p pd=3.22u as=0.61p ps=3.22u w=1u l=0.5u
.ends

.subckt pfet$204 w_n180_n88# a_n92_0# a_138_0# a_38_n136#
X0 a_138_0# a_38_n136# a_n92_0# w_n180_n88# pfet_03v3 ad=1.95p pd=7.3u as=1.95p ps=7.3u w=3u l=0.5u
.ends

.subckt nfet$242 a_38_n60# a_n84_0# a_138_0# VSUBS
X0 a_138_0# a_38_n60# a_n84_0# VSUBS nfet_03v3 ad=0.61p pd=3.22u as=0.61p ps=3.22u w=1u l=0.5u
.ends

.subckt pfet$227 w_n180_n88# a_n92_0# a_342_0# a_138_0# a_38_n136# a_242_n136#
X0 a_342_0# a_242_n136# a_138_0# w_n180_n88# pfet_03v3 ad=1.95p pd=7.3u as=0.78p ps=3.52u w=3u l=0.5u
X1 a_138_0# a_38_n136# a_n92_0# w_n180_n88# pfet_03v3 ad=0.78p pd=3.52u as=1.95p ps=7.3u w=3u l=0.5u
.ends

.subckt nfet$235 a_242_n60# a_38_n60# a_n84_0# a_342_0# a_138_0# VSUBS
X0 a_342_0# a_242_n60# a_138_0# VSUBS nfet_03v3 ad=0.61p pd=3.22u as=0.26p ps=1.52u w=1u l=0.5u
X1 a_138_0# a_38_n60# a_n84_0# VSUBS nfet_03v3 ad=0.26p pd=1.52u as=0.61p ps=3.22u w=1u l=0.5u
.ends

.subckt nfet$228 a_38_n60# a_n84_0# a_138_0# VSUBS
X0 a_138_0# a_38_n60# a_n84_0# VSUBS nfet_03v3 ad=0.61p pd=3.22u as=0.61p ps=3.22u w=1u l=0.5u
.ends

.subckt pfet$225 w_n180_n88# a_n92_0# a_342_0# a_138_0# a_38_n136# a_242_n136#
X0 a_342_0# a_242_n136# a_138_0# w_n180_n88# pfet_03v3 ad=1.95p pd=7.3u as=0.78p ps=3.52u w=3u l=0.5u
X1 a_138_0# a_38_n136# a_n92_0# w_n180_n88# pfet_03v3 ad=0.78p pd=3.52u as=1.95p ps=7.3u w=3u l=0.5u
.ends

.subckt nfet$240 a_242_n60# a_38_n60# a_n84_0# a_342_0# a_138_0# VSUBS
X0 a_342_0# a_242_n60# a_138_0# VSUBS nfet_03v3 ad=0.61p pd=3.22u as=0.26p ps=1.52u w=1u l=0.5u
X1 a_138_0# a_38_n60# a_n84_0# VSUBS nfet_03v3 ad=0.26p pd=1.52u as=0.61p ps=3.22u w=1u l=0.5u
.ends

.subckt nfet$233 a_38_n60# a_n84_0# a_138_0# VSUBS
X0 a_138_0# a_38_n60# a_n84_0# VSUBS nfet_03v3 ad=0.61p pd=3.22u as=0.61p ps=3.22u w=1u l=0.5u
.ends

.subckt pfet$218 w_n180_n88# a_n92_0# a_138_0# a_38_n136#
X0 a_138_0# a_38_n136# a_n92_0# w_n180_n88# pfet_03v3 ad=1.95p pd=7.3u as=1.95p ps=7.3u w=3u l=0.5u
.ends

.subckt nfet$226 a_242_n60# a_38_n60# a_n84_0# a_342_0# a_138_0# VSUBS
X0 a_342_0# a_242_n60# a_138_0# VSUBS nfet_03v3 ad=0.61p pd=3.22u as=0.26p ps=1.52u w=1u l=0.5u
X1 a_138_0# a_38_n60# a_n84_0# VSUBS nfet_03v3 ad=0.26p pd=1.52u as=0.61p ps=3.22u w=1u l=0.5u
.ends

.subckt pfet$223 w_n180_n88# a_n92_0# a_138_0# a_38_n136#
X0 a_138_0# a_38_n136# a_n92_0# w_n180_n88# pfet_03v3 ad=1.95p pd=7.3u as=1.95p ps=7.3u w=3u l=0.5u
.ends

.subckt pfet$216 w_n180_n88# a_n92_0# a_138_0# a_38_n136#
X0 a_138_0# a_38_n136# a_n92_0# w_n180_n88# pfet_03v3 ad=1.95p pd=7.3u as=1.95p ps=7.3u w=3u l=0.5u
.ends

.subckt pfet$209 w_n180_n88# a_n92_0# a_138_0# a_38_n136#
X0 a_138_0# a_38_n136# a_n92_0# w_n180_n88# pfet_03v3 ad=1.95p pd=7.3u as=1.95p ps=7.3u w=3u l=0.5u
.ends

.subckt nfet$247 a_38_n60# a_n84_0# a_138_0# VSUBS
X0 a_138_0# a_38_n60# a_n84_0# VSUBS nfet_03v3 ad=0.61p pd=3.22u as=0.61p ps=3.22u w=1u l=0.5u
.ends

.subckt nfet$222 a_38_n60# a_n84_0# a_138_0# VSUBS
X0 a_138_0# a_38_n60# a_n84_0# VSUBS nfet_03v3 ad=0.61p pd=3.22u as=0.61p ps=3.22u w=1u l=0.5u
.ends

.subckt nfet$245 a_242_n60# a_38_n60# a_n84_0# a_342_0# a_138_0# VSUBS
X0 a_342_0# a_242_n60# a_138_0# VSUBS nfet_03v3 ad=0.61p pd=3.22u as=0.26p ps=1.52u w=1u l=0.5u
X1 a_138_0# a_38_n60# a_n84_0# VSUBS nfet_03v3 ad=0.26p pd=1.52u as=0.61p ps=3.22u w=1u l=0.5u
.ends

.subckt pfet$212 w_n180_n88# a_n92_0# a_138_0# a_38_n136#
X0 a_138_0# a_38_n136# a_n92_0# w_n180_n88# pfet_03v3 ad=1.95p pd=7.3u as=1.95p ps=7.3u w=3u l=0.5u
.ends

.subckt asc_dual_psd_def_20250809 vdd vss pd1 pd2 pd3 pd4 pd5 pd6 pd7 pd8 pd9 fout
+ sd1 sd2 sd3 sd4 sd5 sd6 sd7 sd8 sd9 fin define
Xpfet$196_7 vdd vdd m1_7232_25662# m1_7095_25858# pfet$196
Xnfet$238_1 m1_n1927_20274# m1_n1927_20274# vss vss m1_n2445_20470# vss nfet$238
Xnfet$212_72 m1_23827_25858# m1_25912_25658# m1_26705_24542# vss nfet$212
Xnfet$212_61 m1_23964_25662# m1_24808_24224# m1_25912_25658# vss nfet$212
Xnfet$212_50 m1_n7513_20152# vss m1_21241_24346# vss nfet$212
Xnfet$224_7 m1_488_21786# m1_488_21786# vss vss m1_n674_21586# vss nfet$224
Xnfet$217_6 m1_9015_17714# vss m1_12935_19550# vss nfet$217
Xnfet$231_8 m1_3015_15778# m1_3015_15778# m1_2905_18030# m1_2905_18030# m1_3141_17358#
+ vss nfet$231
Xnfet$217_17 m1_21880_15478# vss m1_25722_20152# vss nfet$217
Xpfet$196_49 vdd m1_20126_25858# vdd m1_21729_25658# pfet$196
Xpfet$196_38 vdd vdd m1_16085_25662# m1_15943_25858# pfet$196
Xpfet$196_27 vdd vdd m1_11278_25858# m1_7522_21786# pfet$196
Xpfet$196_16 vdd vdd m1_5771_21786# pd3 pfet$196
Xpfet$207_4 vdd m1_34093_19792# vdd m1_32818_20470# pfet$207
Xpfet$214_5 vdd m1_26217_17714# vdd m1_27292_16202# pfet$214
Xnfet$215_3 m1_n7513_20152# vss m1_9944_16080# vss nfet$215
Xpfet$221_6 vdd vdd m1_n6973_21481# m1_n6839_21786# pfet$221
Xpfet$197_92 vdd m1_15454_18030# vdd m1_14127_16080# pfet$197
Xpfet$197_81 vdd vdd m1_13668_17714# m1_14127_16080# pfet$197
Xpfet$197_70 vdd vdd m1_18824_17836# m1_18665_17343# pfet$197
Xnfet$213_0 m1_n1133_21590# m1_n1133_21590# m1_354_22513# m1_354_22513# m1_n674_21586#
+ vss nfet$213
Xnfet$220_1 m1_n789_25858# vss m1_n647_25662# vss nfet$220
Xpfet$205_1 vdd m1_n789_25858# vdd m1_814_25658# pfet$205
Xpfet$202_13 vdd vdd m1_16452_19550# m1_13198_17714# pfet$202
Xpfet$197_103 vdd m1_14743_16202# m1_14258_17518# m1_14641_17836# pfet$197
Xnfet$215_72 m1_17851_17714# vss m1_18441_17518# vss nfet$215
Xnfet$215_61 m1_20104_16080# vss m1_19747_15778# vss nfet$215
Xnfet$215_50 m1_25747_17714# vss m1_22848_17343# vss nfet$215
Xnfet$211_19 m1_21729_25658# m1_21729_25658# vss vss m1_22188_25502# vss nfet$211
Xpfet$199_27 vdd vdd vdd m1_20407_19850# m1_22205_20152# m1_22205_20152# pfet$199
Xpfet$199_16 vdd vdd vdd m1_28077_19550# m1_26063_15478# m1_26063_15478# pfet$199
Xpfet$196_8 vdd vdd m1_8076_24224# m1_7456_23922# pfet$196
Xnfet$238_2 m1_n3206_20274# m1_n3206_20274# vss vss m1_n3724_20470# vss nfet$238
Xnfet$212_73 m1_24309_25858# vss m1_21590_21786# vss nfet$212
Xnfet$212_62 m1_24188_23922# vss m1_24808_24224# vss nfet$212
Xnfet$212_51 m1_19644_25858# m1_21729_25658# m1_22522_24542# vss nfet$212
Xnfet$212_40 m1_15598_25662# m1_16442_24224# m1_17546_25658# vss nfet$212
Xnfet$224_8 m1_25739_21786# m1_25739_21786# vss vss m1_24577_21586# vss nfet$224
Xnfet$217_7 m1_5148_15478# vss m1_11654_20152# vss nfet$217
Xnfet$231_9 m1_2194_16202# m1_2194_16202# vss vss m1_1676_16398# vss nfet$231
Xpfet$196_39 vdd vdd m1_15598_25662# m1_15461_25858# pfet$196
Xpfet$196_28 vdd m1_11639_23922# m1_11903_24542# m1_11278_25858# pfet$196
Xpfet$196_17 vdd vdd m1_7577_25858# m1_8692_24346# pfet$196
Xnfet$243_0 m1_n8283_20611# vss m1_n8283_19850# vss nfet$243
Xpfet$228_0 vdd vdd m1_n8145_21908# m1_n6839_20152# pfet$228
Xpfet$214_6 vdd vdd m1_28003_18030# m1_28113_15778# pfet$214
Xpfet$207_5 vdd vdd m1_34093_19792# m1_32818_21586# pfet$207
Xnfet$215_4 m1_10299_17343# m1_10560_16202# m1_10075_17518# vss nfet$215
Xpfet$221_7 vdd vdd m1_n6839_21786# m1_n6380_21786# pfet$221
Xpfet$197_93 vdd m1_23820_18030# vdd m1_22493_16080# pfet$197
Xpfet$197_82 vdd m1_13668_17714# vdd m1_14743_16202# pfet$197
Xpfet$197_71 vdd vdd m1_19747_15778# m1_20104_16080# pfet$197
Xpfet$197_60 vdd vdd m1_n194_15778# m1_n3064_17714# pfet$197
Xnfet$213_1 m1_n1263_21786# m1_n1263_21786# m1_354_22513# m1_354_22513# m1_n42_21586#
+ vss nfet$213
Xnfet$220_2 m1_n1271_25858# vss m1_n1134_25662# vss nfet$220
Xpfet$205_2 vdd vdd m1_n789_25858# m1_326_24346# pfet$205
Xpfet$202_14 vdd vdd m1_23486_19550# m1_21564_17714# pfet$202
Xpfet$197_104 vdd vdd m1_14127_16080# m1_n7513_20152# pfet$197
Xpfet$210_0 vdd m1_34093_22102# vdd m1_28490_22513# pfet$210
Xnfet$215_73 m1_13668_17714# vss m1_16538_15778# vss nfet$215
Xnfet$215_62 m1_18665_17343# m1_20721_15778# m1_20104_16080# vss nfet$215
Xnfet$215_51 m1_n7513_20152# vss m1_22493_16080# vss nfet$215
Xnfet$215_40 m1_n2250_17343# m1_n194_15778# m1_n811_16080# vss nfet$215
Xpfet$199_28 vdd vdd vdd m1_21043_19550# m1_17697_15478# m1_17697_15478# pfet$199
Xpfet$199_17 vdd m1_n3822_20130# m1_n3822_20130# m1_28077_19550# m1_25747_17714# m1_25747_17714#
+ pfet$199
Xnfet$238_3 m1_n6973_21481# m1_n6973_21481# m1_n6839_20152# m1_n6839_20152# m1_n6282_20470#
+ vss nfet$238
Xpfet$196_9 vdd m1_7719_25662# m1_7456_23922# m1_7232_25662# pfet$196
Xnfet$212_74 pd8 vss m1_23356_21786# vss nfet$212
Xnfet$212_63 m1_14556_21786# vss m1_19644_25858# vss nfet$212
Xnfet$212_52 m1_20126_25858# vss m1_22522_24542# vss nfet$212
Xnfet$212_41 pd5 vss m1_12805_21786# vss nfet$212
Xnfet$212_30 m1_n7513_20152# vss m1_17058_24346# vss nfet$212
Xnfet$224_9 m1_25107_21786# m1_25107_21786# vss vss m1_23945_21586# vss nfet$224
Xnfet$217_8 m1_n7383_17599# vss m1_n1133_19550# vss nfet$217
Xpfet$196_29 vdd vdd m1_11903_24542# m1_12259_24224# pfet$196
Xpfet$196_18 vdd vdd m1_11415_25662# m1_11278_25858# pfet$196
Xnfet$243_1 m1_n7513_20152# m1_n8283_19850# vss vss nfet$243
Xnfet$236_0 m1_n10452_25858# m1_n10452_25858# m1_n7186_25858# m1_n7186_25858# m1_n6629_25502#
+ vss nfet$236
Xnfet$215_5 m1_10458_17836# m1_11738_16080# m1_11271_18030# vss nfet$215
Xpfet$214_7 vdd m1_28003_18030# vdd m1_26676_16080# pfet$214
Xpfet$207_6 vdd vdd m1_31535_19792# m1_14422_22513# pfet$207
Xpfet$197_94 vdd vdd m1_22624_17518# m1_22034_17714# pfet$197
Xpfet$197_83 vdd m1_16538_15778# m1_15921_16080# m1_14641_17836# pfet$197
Xpfet$197_72 vdd m1_20721_15778# m1_20104_16080# m1_18824_17836# pfet$197
Xpfet$197_61 vdd m1_n811_16080# m1_n1278_18030# m1_n2250_17343# pfet$197
Xpfet$197_50 vdd m1_n1168_15778# m1_n1989_16202# m1_n2250_17343# pfet$197
Xpfet$205_3 vdd m1_n646_24542# vdd m1_326_24346# pfet$205
Xnfet$213_2 m1_9288_21786# m1_9288_21786# m1_9645_21447# m1_9645_21447# m1_10509_21586#
+ vss nfet$213
Xnfet$220_3 m1_n7513_20152# vss m1_326_24346# vss nfet$220
Xpfet$202_15 vdd vdd m1_22205_20152# m1_17697_15478# pfet$202
Xpfet$197_105 vdd vdd m1_14258_17518# m1_13668_17714# pfet$197
Xpfet$210_1 vdd vdd m1_34093_22102# m1_34843_21786# pfet$210
Xnfet$215_74 m1_14482_17343# vss m1_14641_17836# vss nfet$215
Xnfet$215_63 m1_13668_17714# vss m1_14258_17518# vss nfet$215
Xnfet$215_52 m1_23007_17836# m1_24287_16080# m1_23820_18030# vss nfet$215
Xnfet$215_30 sd6 vss m1_5148_15478# vss nfet$215
Xnfet$215_41 m1_n2091_17836# m1_n1168_15778# m1_n1989_16202# vss nfet$215
Xpfet$203_0 vdd vdd m1_n7401_15478# sd9 pfet$203
Xpfet$199_29 vdd vdd vdd m1_23924_19850# m1_25722_20152# m1_25722_20152# pfet$199
Xpfet$199_18 vdd vdd vdd m1_27441_19850# m1_29239_20152# m1_29239_20152# pfet$199
Xnfet$238_4 m1_2590_19404# m1_2590_19404# vss vss m1_n2445_21430# vss nfet$238
Xnfet$212_75 m1_28371_23922# vss m1_28991_24224# vss nfet$212
Xnfet$212_64 m1_19644_25858# vss m1_19781_25662# vss nfet$212
Xnfet$212_53 m1_23827_25858# m1_24451_25662# m1_24188_23922# vss nfet$212
Xnfet$212_42 m1_15943_25858# vss m1_16085_25662# vss nfet$212
Xnfet$212_31 m1_15943_25858# vss m1_18339_24542# vss nfet$212
Xnfet$217_9 m1_25747_17714# vss m1_27003_19550# vss nfet$217
Xnfet$212_20 pd3 vss m1_5771_21786# vss nfet$212
Xnfet$229_0 m1_34093_22102# vss fout vss nfet$229
Xnfet$243_2 m1_n8145_21908# vss m1_n8283_20611# vss nfet$243
Xnfet$236_1 m1_n6111_25858# m1_n6111_25858# vss vss m1_n6629_25502# vss nfet$236
Xpfet$196_19 vdd vdd m1_7095_25858# m1_4005_21786# pfet$196
Xnfet$215_6 m1_6116_17343# vss m1_6275_17836# vss nfet$215
Xpfet$207_7 vdd vdd m1_31535_22102# m1_354_22513# pfet$207
Xpfet$197_95 vdd vdd m1_21564_17714# m1_22034_17714# pfet$197
Xpfet$197_84 vdd vdd m1_17381_17714# m1_17851_17714# pfet$197
Xpfet$197_73 vdd vdd m1_16538_15778# m1_13668_17714# pfet$197
Xpfet$197_62 vdd vdd m1_23007_17836# m1_22848_17343# pfet$197
Xpfet$197_40 vdd m1_10560_16202# m1_10075_17518# m1_10458_17836# pfet$197
Xpfet$197_51 vdd vdd m1_n1168_15778# m1_n811_16080# pfet$197
Xnfet$213_3 m1_9418_21590# m1_9418_21590# m1_9645_21447# m1_9645_21447# m1_9877_21586#
+ vss nfet$213
Xnfet$220_4 m1_n789_25858# vss m1_1607_24542# vss nfet$220
Xpfet$205_4 vdd vdd m1_32675_25947# m1_33790_24346# pfet$205
Xpfet$197_106 vdd vdd m1_14482_17343# m1_17381_17714# pfet$197
Xpfet$202_16 vdd vdd m1_19969_19550# m1_17381_17714# pfet$202
Xnfet$211_0 m1_4509_24346# m1_4509_24346# vss vss m1_3991_24542# vss nfet$211
Xpfet$210_2 vdd vdd m1_30256_22102# m1_7388_22513# pfet$210
Xpfet$203_1 vdd vdd m1_21880_15478# sd2 pfet$203
Xnfet$215_31 m1_1933_17343# m1_3989_15778# m1_3372_16080# vss nfet$215
Xnfet$215_20 m1_1119_17714# vss m1_1709_17518# vss nfet$215
Xnfet$215_42 m1_n811_16080# vss m1_n1168_15778# vss nfet$215
Xnfet$215_75 sd3 vss m1_17697_15478# vss nfet$215
Xnfet$215_64 m1_13668_17714# vss m1_13198_17714# vss nfet$215
Xnfet$215_53 m1_22848_17343# vss m1_23007_17836# vss nfet$215
Xpfet$199_19 vdd m1_n3822_20130# m1_n3822_20130# m1_27441_19850# m1_27003_19550# m1_27003_19550#
+ pfet$199
Xnfet$238_5 m1_6107_19404# m1_6107_19404# m1_n5227_21418# m1_n5227_21418# m1_n2445_21430#
+ vss nfet$238
Xnfet$212_76 m1_28492_25858# vss m1_28634_25662# vss nfet$212
Xnfet$212_65 m1_28492_25858# vss m1_25107_21786# vss nfet$212
Xnfet$212_54 m1_24309_25858# vss m1_24451_25662# vss nfet$212
Xnfet$212_43 m1_15461_25858# vss m1_15598_25662# vss nfet$212
Xnfet$212_32 m1_15461_25858# m1_17546_25658# m1_18339_24542# vss nfet$212
Xnfet$212_21 m1_11278_25858# m1_11902_25662# m1_11639_23922# vss nfet$212
Xnfet$212_10 m1_7577_25858# vss m1_9973_24542# vss nfet$212
Xnfet$243_3 m1_n8283_19850# m1_n8283_20611# vss vss nfet$243
Xnfet$215_7 m1_9485_17714# vss m1_10075_17518# vss nfet$215
Xnfet$241_0 m1_n10933_25858# m1_n8848_25658# m1_n8055_24542# vss nfet$241
Xpfet$197_96 vdd vdd m1_18665_17343# m1_21564_17714# pfet$197
Xpfet$197_85 vdd m1_18926_16202# m1_18441_17518# m1_18824_17836# pfet$197
Xpfet$197_74 vdd vdd m1_14641_17836# m1_14482_17343# pfet$197
Xpfet$197_63 vdd m1_23930_15778# m1_23109_16202# m1_22848_17343# pfet$197
Xpfet$197_30 vdd vdd m1_1933_17343# m1_4832_17714# pfet$197
Xpfet$197_41 vdd vdd m1_10075_17518# m1_9485_17714# pfet$197
Xpfet$197_52 vdd m1_n3064_17714# vdd m1_n1989_16202# pfet$197
Xpfet$226_0 vdd vdd m1_n5227_20152# m1_n2543_20130# pfet$226
Xnfet$213_4 m1_5901_21590# m1_5901_21590# m1_7388_22513# m1_7388_22513# m1_6360_21586#
+ vss nfet$213
Xnfet$220_5 m1_n789_25858# vss m1_488_21786# vss nfet$220
Xpfet$205_5 vdd m1_32675_25947# vdd m1_34278_25658# pfet$205
Xnfet$220_10 m1_32675_25947# vss m1_35071_24542# vss nfet$220
Xpfet$202_17 vdd vdd m1_25722_20152# m1_21880_15478# pfet$202
Xpfet$197_107 vdd m1_15921_16080# m1_15454_18030# m1_14482_17343# pfet$197
Xpfet$203_2 vdd vdd m1_26063_15478# sd1 pfet$203
Xpfet$210_3 vdd m1_31535_22102# vdd m1_3871_22513# pfet$210