* Extracted by KLayout with GF180MCU LVS runset on : 08/08/2025 05:08

.SUBCKT asc_9_bit_counter vss vdd d1 d2 d3 d4 d5 d6 d7 d8 d9 rst done a
M$1 \$11 \$4 vdd vdd pfet_03v3 L=0.5U W=3U AS=1.95P AD=1.95P PS=7.3U PD=7.3U
M$2 \$12 \$5 vdd vdd pfet_03v3 L=0.5U W=3U AS=1.95P AD=1.95P PS=7.3U PD=7.3U
M$3 vdd \$2 \$4 vdd pfet_03v3 L=0.5U W=3U AS=1.95P AD=1.95P PS=7.3U PD=7.3U
M$4 \$4 \$1 vdd vdd pfet_03v3 L=0.5U W=3U AS=1.95P AD=1.95P PS=7.3U PD=7.3U
M$5 vdd \$26 \$5 vdd pfet_03v3 L=0.5U W=3U AS=1.95P AD=1.95P PS=7.3U PD=7.3U
M$6 \$5 \$11 vdd vdd pfet_03v3 L=0.5U W=3U AS=1.95P AD=1.95P PS=7.3U PD=7.3U
M$7 \$51 \$25 vdd vdd pfet_03v3 L=0.5U W=6U AS=3.9P AD=3.9P PS=13.3U PD=13.3U
M$8 \$54 \$13 vdd vdd pfet_03v3 L=0.5U W=6U AS=3.9P AD=3.9P PS=13.3U PD=13.3U
M$9 \$55 \$15 vdd vdd pfet_03v3 L=0.5U W=6U AS=3.9P AD=3.9P PS=13.3U PD=13.3U
M$10 \$58 \$16 vdd vdd pfet_03v3 L=0.5U W=6U AS=3.9P AD=3.9P PS=13.3U PD=13.3U
M$11 \$59 \$18 vdd vdd pfet_03v3 L=0.5U W=6U AS=3.9P AD=3.9P PS=13.3U PD=13.3U
M$12 \$62 \$19 vdd vdd pfet_03v3 L=0.5U W=6U AS=3.9P AD=3.9P PS=13.3U PD=13.3U
M$13 \$63 \$21 vdd vdd pfet_03v3 L=0.5U W=6U AS=3.9P AD=3.9P PS=13.3U PD=13.3U
M$14 \$66 \$22 vdd vdd pfet_03v3 L=0.5U W=6U AS=3.9P AD=3.9P PS=13.3U PD=13.3U
M$15 \$67 \$24 vdd vdd pfet_03v3 L=0.5U W=6U AS=3.9P AD=3.9P PS=13.3U PD=13.3U
M$16 \$93 \$94 \$1 vdd pfet_03v3 L=0.5U W=6U AS=3.9P AD=3.9P PS=13.3U PD=13.3U
M$17 \$96 \$95 \$2 vdd pfet_03v3 L=0.5U W=6U AS=3.9P AD=3.9P PS=13.3U PD=13.3U
M$18 \$97 \$98 \$3 vdd pfet_03v3 L=0.5U W=6U AS=3.9P AD=3.9P PS=13.3U PD=13.3U
M$19 \$100 \$99 \$70 vdd pfet_03v3 L=0.5U W=6U AS=3.9P AD=3.9P PS=13.3U PD=13.3U
M$20 \$101 \$102 \$17 vdd pfet_03v3 L=0.5U W=6U AS=3.9P AD=3.9P PS=13.3U
+ PD=13.3U
M$21 \$104 \$103 \$71 vdd pfet_03v3 L=0.5U W=6U AS=3.9P AD=3.9P PS=13.3U
+ PD=13.3U
M$22 \$105 \$106 \$20 vdd pfet_03v3 L=0.5U W=6U AS=3.9P AD=3.9P PS=13.3U
+ PD=13.3U
M$23 \$107 \$741 \$72 vdd pfet_03v3 L=0.5U W=6U AS=3.9P AD=3.9P PS=13.3U
+ PD=13.3U
M$24 \$108 \$109 \$23 vdd pfet_03v3 L=0.5U W=6U AS=3.9P AD=3.9P PS=13.3U
+ PD=13.3U
M$25 vdd d1 \$93 vdd pfet_03v3 L=0.5U W=6U AS=3.9P AD=3.9P PS=13.3U PD=13.3U
M$26 vdd d2 \$96 vdd pfet_03v3 L=0.5U W=6U AS=3.9P AD=3.9P PS=13.3U PD=13.3U
M$27 vdd d3 \$97 vdd pfet_03v3 L=0.5U W=6U AS=3.9P AD=3.9P PS=13.3U PD=13.3U
M$28 vdd d4 \$100 vdd pfet_03v3 L=0.5U W=6U AS=3.9P AD=3.9P PS=13.3U PD=13.3U
M$29 vdd d5 \$101 vdd pfet_03v3 L=0.5U W=6U AS=3.9P AD=3.9P PS=13.3U PD=13.3U
M$30 vdd d6 \$104 vdd pfet_03v3 L=0.5U W=6U AS=3.9P AD=3.9P PS=13.3U PD=13.3U
M$31 vdd d7 \$105 vdd pfet_03v3 L=0.5U W=6U AS=3.9P AD=3.9P PS=13.3U PD=13.3U
M$32 vdd d8 \$107 vdd pfet_03v3 L=0.5U W=6U AS=3.9P AD=3.9P PS=13.3U PD=13.3U
M$33 vdd d9 \$108 vdd pfet_03v3 L=0.5U W=6U AS=3.9P AD=3.9P PS=13.3U PD=13.3U
M$34 \$1 \$183 \$51 vdd pfet_03v3 L=0.5U W=6U AS=3.9P AD=3.9P PS=13.3U PD=13.3U
M$35 \$2 \$184 \$54 vdd pfet_03v3 L=0.5U W=6U AS=3.9P AD=3.9P PS=13.3U PD=13.3U
M$36 \$3 \$185 \$55 vdd pfet_03v3 L=0.5U W=6U AS=3.9P AD=3.9P PS=13.3U PD=13.3U
M$37 \$70 \$186 \$58 vdd pfet_03v3 L=0.5U W=6U AS=3.9P AD=3.9P PS=13.3U PD=13.3U
M$38 \$17 \$187 \$59 vdd pfet_03v3 L=0.5U W=6U AS=3.9P AD=3.9P PS=13.3U PD=13.3U
M$39 \$71 \$188 \$62 vdd pfet_03v3 L=0.5U W=6U AS=3.9P AD=3.9P PS=13.3U PD=13.3U
M$40 \$20 \$189 \$63 vdd pfet_03v3 L=0.5U W=6U AS=3.9P AD=3.9P PS=13.3U PD=13.3U
M$41 \$72 \$190 \$66 vdd pfet_03v3 L=0.5U W=6U AS=3.9P AD=3.9P PS=13.3U PD=13.3U
M$42 \$23 \$191 \$67 vdd pfet_03v3 L=0.5U W=6U AS=3.9P AD=3.9P PS=13.3U PD=13.3U
M$43 vdd \$3 \$158 vdd pfet_03v3 L=0.5U W=3U AS=1.95P AD=1.95P PS=7.3U PD=7.3U
M$44 \$158 \$70 vdd vdd pfet_03v3 L=0.5U W=3U AS=1.95P AD=1.95P PS=7.3U PD=7.3U
M$45 \$26 \$158 vdd vdd pfet_03v3 L=0.5U W=3U AS=1.95P AD=1.95P PS=7.3U PD=7.3U
M$46 vdd \$12 \$160 vdd pfet_03v3 L=0.5U W=3U AS=1.95P AD=1.95P PS=7.3U PD=7.3U
M$47 \$160 \$250 vdd vdd pfet_03v3 L=0.5U W=3U AS=1.95P AD=1.95P PS=7.3U PD=7.3U
M$48 \$152 \$160 vdd vdd pfet_03v3 L=0.5U W=3U AS=1.95P AD=1.95P PS=7.3U PD=7.3U
M$49 \$183 \$94 vdd vdd pfet_03v3 L=0.5U W=3U AS=1.95P AD=1.95P PS=7.3U PD=7.3U
M$50 \$25 d1 vdd vdd pfet_03v3 L=0.5U W=3U AS=1.95P AD=1.95P PS=7.3U PD=7.3U
M$51 vdd d2 \$13 vdd pfet_03v3 L=0.5U W=3U AS=1.95P AD=1.95P PS=7.3U PD=7.3U
M$52 vdd \$95 \$184 vdd pfet_03v3 L=0.5U W=3U AS=1.95P AD=1.95P PS=7.3U PD=7.3U
M$53 \$185 \$98 vdd vdd pfet_03v3 L=0.5U W=3U AS=1.95P AD=1.95P PS=7.3U PD=7.3U
M$54 \$15 d3 vdd vdd pfet_03v3 L=0.5U W=3U AS=1.95P AD=1.95P PS=7.3U PD=7.3U
M$55 vdd d4 \$16 vdd pfet_03v3 L=0.5U W=3U AS=1.95P AD=1.95P PS=7.3U PD=7.3U
M$56 vdd \$99 \$186 vdd pfet_03v3 L=0.5U W=3U AS=1.95P AD=1.95P PS=7.3U PD=7.3U
M$57 \$187 \$102 vdd vdd pfet_03v3 L=0.5U W=3U AS=1.95P AD=1.95P PS=7.3U PD=7.3U
M$58 \$18 d5 vdd vdd pfet_03v3 L=0.5U W=3U AS=1.95P AD=1.95P PS=7.3U PD=7.3U
M$59 vdd d6 \$19 vdd pfet_03v3 L=0.5U W=3U AS=1.95P AD=1.95P PS=7.3U PD=7.3U
M$60 vdd \$103 \$188 vdd pfet_03v3 L=0.5U W=3U AS=1.95P AD=1.95P PS=7.3U PD=7.3U
M$61 \$189 \$106 vdd vdd pfet_03v3 L=0.5U W=3U AS=1.95P AD=1.95P PS=7.3U PD=7.3U
M$62 \$21 d7 vdd vdd pfet_03v3 L=0.5U W=3U AS=1.95P AD=1.95P PS=7.3U PD=7.3U
M$63 vdd d8 \$22 vdd pfet_03v3 L=0.5U W=3U AS=1.95P AD=1.95P PS=7.3U PD=7.3U
M$64 vdd \$741 \$190 vdd pfet_03v3 L=0.5U W=3U AS=1.95P AD=1.95P PS=7.3U PD=7.3U
M$65 \$191 \$109 vdd vdd pfet_03v3 L=0.5U W=3U AS=1.95P AD=1.95P PS=7.3U PD=7.3U
M$66 \$24 d9 vdd vdd pfet_03v3 L=0.5U W=3U AS=1.95P AD=1.95P PS=7.3U PD=7.3U
M$67 \$420 a vdd vdd pfet_03v3 L=0.5U W=3U AS=1.95P AD=1.95P PS=7.3U PD=7.3U
M$68 \$413 \$420 vdd vdd pfet_03v3 L=0.5U W=3U AS=1.95P AD=1.95P PS=7.3U PD=7.3U
M$69 vdd \$444 \$412 vdd pfet_03v3 L=0.5U W=3U AS=1.95P AD=1.95P PS=7.3U PD=7.3U
M$70 \$412 \$422 vdd vdd pfet_03v3 L=0.5U W=3U AS=1.95P AD=1.95P PS=7.3U PD=7.3U
M$71 vdd rst \$422 vdd pfet_03v3 L=0.5U W=3U AS=1.95P AD=1.95P PS=7.3U PD=7.3U
M$72 vdd \$449 \$424 vdd pfet_03v3 L=0.5U W=3U AS=1.95P AD=1.95P PS=7.3U PD=7.3U
M$73 \$425 \$94 vdd vdd pfet_03v3 L=0.5U W=3U AS=1.95P AD=1.95P PS=7.3U PD=7.3U
M$74 \$415 \$425 vdd vdd pfet_03v3 L=0.5U W=3U AS=1.95P AD=1.95P PS=7.3U PD=7.3U
M$75 vdd \$445 \$414 vdd pfet_03v3 L=0.5U W=3U AS=1.95P AD=1.95P PS=7.3U PD=7.3U
M$76 \$414 \$427 vdd vdd pfet_03v3 L=0.5U W=3U AS=1.95P AD=1.95P PS=7.3U PD=7.3U
M$77 vdd rst \$427 vdd pfet_03v3 L=0.5U W=3U AS=1.95P AD=1.95P PS=7.3U PD=7.3U
M$78 vdd \$450 \$429 vdd pfet_03v3 L=0.5U W=3U AS=1.95P AD=1.95P PS=7.3U PD=7.3U
M$79 vdd \$446 \$416 vdd pfet_03v3 L=0.5U W=3U AS=1.95P AD=1.95P PS=7.3U PD=7.3U
M$80 \$416 \$432 vdd vdd pfet_03v3 L=0.5U W=3U AS=1.95P AD=1.95P PS=7.3U PD=7.3U
M$81 vdd \$447 \$418 vdd pfet_03v3 L=0.5U W=3U AS=1.95P AD=1.95P PS=7.3U PD=7.3U
M$82 \$418 \$437 vdd vdd pfet_03v3 L=0.5U W=3U AS=1.95P AD=1.95P PS=7.3U PD=7.3U
M$83 vdd \$71 \$337 vdd pfet_03v3 L=0.5U W=3U AS=1.95P AD=1.95P PS=7.3U PD=7.3U
M$84 \$337 \$17 vdd vdd pfet_03v3 L=0.5U W=3U AS=1.95P AD=1.95P PS=7.3U PD=7.3U
M$85 \$441 \$337 vdd vdd pfet_03v3 L=0.5U W=3U AS=1.95P AD=1.95P PS=7.3U PD=7.3U
M$86 vdd \$23 \$339 vdd pfet_03v3 L=0.5U W=3U AS=1.95P AD=1.95P PS=7.3U PD=7.3U
M$87 \$339 \$152 vdd vdd pfet_03v3 L=0.5U W=3U AS=1.95P AD=1.95P PS=7.3U PD=7.3U
M$88 done \$339 vdd vdd pfet_03v3 L=0.5U W=3U AS=1.95P AD=1.95P PS=7.3U PD=7.3U
M$89 \$412 \$420 \$421 vdd pfet_03v3 L=0.5U W=3U AS=1.95P AD=1.95P PS=7.3U
+ PD=7.3U
M$90 \$424 \$413 \$423 vdd pfet_03v3 L=0.5U W=3U AS=1.95P AD=1.95P PS=7.3U
+ PD=7.3U
M$91 \$414 \$425 \$426 vdd pfet_03v3 L=0.5U W=3U AS=1.95P AD=1.95P PS=7.3U
+ PD=7.3U
M$92 \$429 \$415 \$428 vdd pfet_03v3 L=0.5U W=3U AS=1.95P AD=1.95P PS=7.3U
+ PD=7.3U
M$93 \$430 \$95 vdd vdd pfet_03v3 L=0.5U W=3U AS=1.95P AD=1.95P PS=7.3U PD=7.3U
M$94 \$417 \$430 vdd vdd pfet_03v3 L=0.5U W=3U AS=1.95P AD=1.95P PS=7.3U PD=7.3U
M$95 \$416 \$430 \$431 vdd pfet_03v3 L=0.5U W=3U AS=1.95P AD=1.95P PS=7.3U
+ PD=7.3U
M$96 vdd rst \$432 vdd pfet_03v3 L=0.5U W=3U AS=1.95P AD=1.95P PS=7.3U PD=7.3U
M$97 \$434 \$417 \$433 vdd pfet_03v3 L=0.5U W=3U AS=1.95P AD=1.95P PS=7.3U
+ PD=7.3U
M$98 vdd \$451 \$434 vdd pfet_03v3 L=0.5U W=3U AS=1.95P AD=1.95P PS=7.3U PD=7.3U
M$99 \$435 \$98 vdd vdd pfet_03v3 L=0.5U W=3U AS=1.95P AD=1.95P PS=7.3U PD=7.3U
M$100 \$419 \$435 vdd vdd pfet_03v3 L=0.5U W=3U AS=1.95P AD=1.95P PS=7.3U
+ PD=7.3U
M$101 \$418 \$435 \$436 vdd pfet_03v3 L=0.5U W=3U AS=1.95P AD=1.95P PS=7.3U
+ PD=7.3U
M$102 vdd rst \$437 vdd pfet_03v3 L=0.5U W=3U AS=1.95P AD=1.95P PS=7.3U PD=7.3U
M$103 \$439 \$419 \$438 vdd pfet_03v3 L=0.5U W=3U AS=1.95P AD=1.95P PS=7.3U
+ PD=7.3U
M$104 vdd \$452 \$439 vdd pfet_03v3 L=0.5U W=3U AS=1.95P AD=1.95P PS=7.3U
+ PD=7.3U
M$105 vdd \$20 \$505 vdd pfet_03v3 L=0.5U W=3U AS=1.95P AD=1.95P PS=7.3U PD=7.3U
M$106 \$505 \$72 vdd vdd pfet_03v3 L=0.5U W=3U AS=1.95P AD=1.95P PS=7.3U PD=7.3U
M$107 vdd \$441 \$507 vdd pfet_03v3 L=0.5U W=3U AS=1.95P AD=1.95P PS=7.3U
+ PD=7.3U
M$108 \$507 \$572 vdd vdd pfet_03v3 L=0.5U W=3U AS=1.95P AD=1.95P PS=7.3U
+ PD=7.3U
M$109 \$421 \$413 \$589 vdd pfet_03v3 L=0.5U W=3U AS=1.95P AD=1.95P PS=7.3U
+ PD=7.3U
M$110 \$423 \$420 \$444 vdd pfet_03v3 L=0.5U W=3U AS=1.95P AD=1.95P PS=7.3U
+ PD=7.3U
M$111 \$426 \$415 \$590 vdd pfet_03v3 L=0.5U W=3U AS=1.95P AD=1.95P PS=7.3U
+ PD=7.3U
M$112 \$428 \$425 \$445 vdd pfet_03v3 L=0.5U W=3U AS=1.95P AD=1.95P PS=7.3U
+ PD=7.3U
M$113 \$572 \$505 vdd vdd pfet_03v3 L=0.5U W=3U AS=1.95P AD=1.95P PS=7.3U
+ PD=7.3U
M$114 \$250 \$507 vdd vdd pfet_03v3 L=0.5U W=3U AS=1.95P AD=1.95P PS=7.3U
+ PD=7.3U
M$115 \$431 \$417 \$591 vdd pfet_03v3 L=0.5U W=3U AS=1.95P AD=1.95P PS=7.3U
+ PD=7.3U
M$116 \$433 \$430 \$446 vdd pfet_03v3 L=0.5U W=3U AS=1.95P AD=1.95P PS=7.3U
+ PD=7.3U
M$117 \$436 \$419 \$592 vdd pfet_03v3 L=0.5U W=3U AS=1.95P AD=1.95P PS=7.3U
+ PD=7.3U
M$118 \$438 \$435 \$447 vdd pfet_03v3 L=0.5U W=3U AS=1.95P AD=1.95P PS=7.3U
+ PD=7.3U
M$119 \$589 \$449 vdd vdd pfet_03v3 L=0.5U W=3U AS=1.95P AD=1.95P PS=7.3U
+ PD=7.3U
M$120 \$444 \$421 vdd vdd pfet_03v3 L=0.5U W=3U AS=1.95P AD=1.95P PS=7.3U
+ PD=7.3U
M$121 \$94 \$449 vdd vdd pfet_03v3 L=0.5U W=3U AS=1.95P AD=1.95P PS=7.3U PD=7.3U
M$122 \$590 \$450 vdd vdd pfet_03v3 L=0.5U W=3U AS=1.95P AD=1.95P PS=7.3U
+ PD=7.3U
M$123 \$445 \$426 vdd vdd pfet_03v3 L=0.5U W=3U AS=1.95P AD=1.95P PS=7.3U
+ PD=7.3U
M$124 \$95 \$450 vdd vdd pfet_03v3 L=0.5U W=3U AS=1.95P AD=1.95P PS=7.3U PD=7.3U
M$125 \$591 \$451 vdd vdd pfet_03v3 L=0.5U W=3U AS=1.95P AD=1.95P PS=7.3U
+ PD=7.3U
M$126 \$446 \$431 vdd vdd pfet_03v3 L=0.5U W=3U AS=1.95P AD=1.95P PS=7.3U
+ PD=7.3U
M$127 \$592 \$452 vdd vdd pfet_03v3 L=0.5U W=3U AS=1.95P AD=1.95P PS=7.3U
+ PD=7.3U
M$128 \$447 \$436 vdd vdd pfet_03v3 L=0.5U W=3U AS=1.95P AD=1.95P PS=7.3U
+ PD=7.3U
M$129 vdd \$762 \$693 vdd pfet_03v3 L=0.5U W=3U AS=1.95P AD=1.95P PS=7.3U
+ PD=7.3U
M$130 \$693 \$742 vdd vdd pfet_03v3 L=0.5U W=3U AS=1.95P AD=1.95P PS=7.3U
+ PD=7.3U
M$131 vdd \$423 \$449 vdd pfet_03v3 L=0.5U W=3U AS=1.95P AD=1.95P PS=7.3U
+ PD=7.3U
M$132 \$449 \$422 vdd vdd pfet_03v3 L=0.5U W=3U AS=1.95P AD=1.95P PS=7.3U
+ PD=7.3U
M$133 vdd \$763 \$696 vdd pfet_03v3 L=0.5U W=3U AS=1.95P AD=1.95P PS=7.3U
+ PD=7.3U
M$134 \$696 \$746 vdd vdd pfet_03v3 L=0.5U W=3U AS=1.95P AD=1.95P PS=7.3U
+ PD=7.3U
M$135 vdd \$428 \$450 vdd pfet_03v3 L=0.5U W=3U AS=1.95P AD=1.95P PS=7.3U
+ PD=7.3U
M$136 \$450 \$427 vdd vdd pfet_03v3 L=0.5U W=3U AS=1.95P AD=1.95P PS=7.3U
+ PD=7.3U
M$137 vdd \$764 \$699 vdd pfet_03v3 L=0.5U W=3U AS=1.95P AD=1.95P PS=7.3U
+ PD=7.3U
M$138 \$699 \$750 vdd vdd pfet_03v3 L=0.5U W=3U AS=1.95P AD=1.95P PS=7.3U
+ PD=7.3U
M$139 vdd \$433 \$451 vdd pfet_03v3 L=0.5U W=3U AS=1.95P AD=1.95P PS=7.3U
+ PD=7.3U
M$140 \$451 \$432 vdd vdd pfet_03v3 L=0.5U W=3U AS=1.95P AD=1.95P PS=7.3U
+ PD=7.3U
M$141 \$98 \$451 vdd vdd pfet_03v3 L=0.5U W=3U AS=1.95P AD=1.95P PS=7.3U PD=7.3U
M$142 vdd \$765 \$702 vdd pfet_03v3 L=0.5U W=3U AS=1.95P AD=1.95P PS=7.3U
+ PD=7.3U
M$143 \$702 \$754 vdd vdd pfet_03v3 L=0.5U W=3U AS=1.95P AD=1.95P PS=7.3U
+ PD=7.3U
M$144 vdd \$438 \$452 vdd pfet_03v3 L=0.5U W=3U AS=1.95P AD=1.95P PS=7.3U
+ PD=7.3U
M$145 \$452 \$437 vdd vdd pfet_03v3 L=0.5U W=3U AS=1.95P AD=1.95P PS=7.3U
+ PD=7.3U
M$146 \$99 \$452 vdd vdd pfet_03v3 L=0.5U W=3U AS=1.95P AD=1.95P PS=7.3U PD=7.3U
M$147 vdd \$766 \$705 vdd pfet_03v3 L=0.5U W=3U AS=1.95P AD=1.95P PS=7.3U
+ PD=7.3U
M$148 \$705 \$758 vdd vdd pfet_03v3 L=0.5U W=3U AS=1.95P AD=1.95P PS=7.3U
+ PD=7.3U
M$149 vdd \$693 \$109 vdd pfet_03v3 L=0.5U W=3U AS=1.95P AD=1.95P PS=7.3U
+ PD=7.3U
M$150 vdd \$744 \$743 vdd pfet_03v3 L=0.5U W=3U AS=1.95P AD=1.95P PS=7.3U
+ PD=7.3U
M$151 vdd \$693 \$745 vdd pfet_03v3 L=0.5U W=3U AS=1.95P AD=1.95P PS=7.3U
+ PD=7.3U
M$152 vdd \$696 \$741 vdd pfet_03v3 L=0.5U W=3U AS=1.95P AD=1.95P PS=7.3U
+ PD=7.3U
M$153 vdd \$748 \$747 vdd pfet_03v3 L=0.5U W=3U AS=1.95P AD=1.95P PS=7.3U
+ PD=7.3U
M$154 vdd \$696 \$749 vdd pfet_03v3 L=0.5U W=3U AS=1.95P AD=1.95P PS=7.3U
+ PD=7.3U
M$155 vdd \$699 \$106 vdd pfet_03v3 L=0.5U W=3U AS=1.95P AD=1.95P PS=7.3U
+ PD=7.3U
M$156 vdd \$752 \$751 vdd pfet_03v3 L=0.5U W=3U AS=1.95P AD=1.95P PS=7.3U
+ PD=7.3U
M$157 vdd \$699 \$753 vdd pfet_03v3 L=0.5U W=3U AS=1.95P AD=1.95P PS=7.3U
+ PD=7.3U
M$158 vdd \$702 \$103 vdd pfet_03v3 L=0.5U W=3U AS=1.95P AD=1.95P PS=7.3U
+ PD=7.3U
M$159 vdd \$756 \$755 vdd pfet_03v3 L=0.5U W=3U AS=1.95P AD=1.95P PS=7.3U
+ PD=7.3U
M$160 vdd \$702 \$757 vdd pfet_03v3 L=0.5U W=3U AS=1.95P AD=1.95P PS=7.3U
+ PD=7.3U
M$161 vdd \$705 \$102 vdd pfet_03v3 L=0.5U W=3U AS=1.95P AD=1.95P PS=7.3U
+ PD=7.3U
M$162 vdd \$760 \$759 vdd pfet_03v3 L=0.5U W=3U AS=1.95P AD=1.95P PS=7.3U
+ PD=7.3U
M$163 vdd \$705 \$761 vdd pfet_03v3 L=0.5U W=3U AS=1.95P AD=1.95P PS=7.3U
+ PD=7.3U
M$164 \$893 \$693 vdd vdd pfet_03v3 L=0.5U W=3U AS=1.95P AD=1.95P PS=7.3U
+ PD=7.3U
M$165 \$742 \$809 \$893 vdd pfet_03v3 L=0.5U W=3U AS=1.95P AD=1.95P PS=7.3U
+ PD=7.3U
M$166 \$762 rst vdd vdd pfet_03v3 L=0.5U W=3U AS=1.95P AD=1.95P PS=7.3U PD=7.3U
M$167 \$743 \$695 \$742 vdd pfet_03v3 L=0.5U W=3U AS=1.95P AD=1.95P PS=7.3U
+ PD=7.3U
M$168 \$744 \$695 \$884 vdd pfet_03v3 L=0.5U W=3U AS=1.95P AD=1.95P PS=7.3U
+ PD=7.3U
M$169 \$745 \$809 \$744 vdd pfet_03v3 L=0.5U W=3U AS=1.95P AD=1.95P PS=7.3U
+ PD=7.3U
M$170 vdd \$695 \$809 vdd pfet_03v3 L=0.5U W=3U AS=1.95P AD=1.95P PS=7.3U
+ PD=7.3U
M$171 vdd \$741 \$695 vdd pfet_03v3 L=0.5U W=3U AS=1.95P AD=1.95P PS=7.3U
+ PD=7.3U
M$172 \$894 \$696 vdd vdd pfet_03v3 L=0.5U W=3U AS=1.95P AD=1.95P PS=7.3U
+ PD=7.3U
M$173 \$746 \$811 \$894 vdd pfet_03v3 L=0.5U W=3U AS=1.95P AD=1.95P PS=7.3U
+ PD=7.3U
M$174 \$763 rst vdd vdd pfet_03v3 L=0.5U W=3U AS=1.95P AD=1.95P PS=7.3U PD=7.3U
M$175 \$747 \$698 \$746 vdd pfet_03v3 L=0.5U W=3U AS=1.95P AD=1.95P PS=7.3U
+ PD=7.3U
M$176 \$748 \$698 \$886 vdd pfet_03v3 L=0.5U W=3U AS=1.95P AD=1.95P PS=7.3U
+ PD=7.3U
M$177 \$749 \$811 \$748 vdd pfet_03v3 L=0.5U W=3U AS=1.95P AD=1.95P PS=7.3U
+ PD=7.3U
M$178 vdd \$698 \$811 vdd pfet_03v3 L=0.5U W=3U AS=1.95P AD=1.95P PS=7.3U
+ PD=7.3U
M$179 vdd \$106 \$698 vdd pfet_03v3 L=0.5U W=3U AS=1.95P AD=1.95P PS=7.3U
+ PD=7.3U
M$180 \$750 \$813 \$895 vdd pfet_03v3 L=0.5U W=3U AS=1.95P AD=1.95P PS=7.3U
+ PD=7.3U
M$181 \$751 \$701 \$750 vdd pfet_03v3 L=0.5U W=3U AS=1.95P AD=1.95P PS=7.3U
+ PD=7.3U
M$182 \$752 \$701 \$888 vdd pfet_03v3 L=0.5U W=3U AS=1.95P AD=1.95P PS=7.3U
+ PD=7.3U
M$183 \$753 \$813 \$752 vdd pfet_03v3 L=0.5U W=3U AS=1.95P AD=1.95P PS=7.3U
+ PD=7.3U
M$184 \$754 \$815 \$896 vdd pfet_03v3 L=0.5U W=3U AS=1.95P AD=1.95P PS=7.3U
+ PD=7.3U
M$185 \$755 \$704 \$754 vdd pfet_03v3 L=0.5U W=3U AS=1.95P AD=1.95P PS=7.3U
+ PD=7.3U
M$186 \$756 \$704 \$890 vdd pfet_03v3 L=0.5U W=3U AS=1.95P AD=1.95P PS=7.3U
+ PD=7.3U
M$187 \$757 \$815 \$756 vdd pfet_03v3 L=0.5U W=3U AS=1.95P AD=1.95P PS=7.3U
+ PD=7.3U
M$188 \$758 \$817 \$897 vdd pfet_03v3 L=0.5U W=3U AS=1.95P AD=1.95P PS=7.3U
+ PD=7.3U
M$189 \$759 \$707 \$758 vdd pfet_03v3 L=0.5U W=3U AS=1.95P AD=1.95P PS=7.3U
+ PD=7.3U
M$190 \$760 \$707 \$892 vdd pfet_03v3 L=0.5U W=3U AS=1.95P AD=1.95P PS=7.3U
+ PD=7.3U
M$191 \$761 \$817 \$760 vdd pfet_03v3 L=0.5U W=3U AS=1.95P AD=1.95P PS=7.3U
+ PD=7.3U
M$192 vdd \$762 \$884 vdd pfet_03v3 L=0.5U W=3U AS=1.95P AD=1.95P PS=7.3U
+ PD=7.3U
M$193 \$884 \$743 vdd vdd pfet_03v3 L=0.5U W=3U AS=1.95P AD=1.95P PS=7.3U
+ PD=7.3U
M$194 vdd \$763 \$886 vdd pfet_03v3 L=0.5U W=3U AS=1.95P AD=1.95P PS=7.3U
+ PD=7.3U
M$195 \$886 \$747 vdd vdd pfet_03v3 L=0.5U W=3U AS=1.95P AD=1.95P PS=7.3U
+ PD=7.3U
M$196 \$895 \$699 vdd vdd pfet_03v3 L=0.5U W=3U AS=1.95P AD=1.95P PS=7.3U
+ PD=7.3U
M$197 \$764 rst vdd vdd pfet_03v3 L=0.5U W=3U AS=1.95P AD=1.95P PS=7.3U PD=7.3U
M$198 vdd \$764 \$888 vdd pfet_03v3 L=0.5U W=3U AS=1.95P AD=1.95P PS=7.3U
+ PD=7.3U
M$199 \$888 \$751 vdd vdd pfet_03v3 L=0.5U W=3U AS=1.95P AD=1.95P PS=7.3U
+ PD=7.3U
M$200 vdd \$701 \$813 vdd pfet_03v3 L=0.5U W=3U AS=1.95P AD=1.95P PS=7.3U
+ PD=7.3U
M$201 vdd \$103 \$701 vdd pfet_03v3 L=0.5U W=3U AS=1.95P AD=1.95P PS=7.3U
+ PD=7.3U
M$202 \$896 \$702 vdd vdd pfet_03v3 L=0.5U W=3U AS=1.95P AD=1.95P PS=7.3U
+ PD=7.3U
M$203 \$765 rst vdd vdd pfet_03v3 L=0.5U W=3U AS=1.95P AD=1.95P PS=7.3U PD=7.3U
M$204 vdd \$765 \$890 vdd pfet_03v3 L=0.5U W=3U AS=1.95P AD=1.95P PS=7.3U
+ PD=7.3U
M$205 \$890 \$755 vdd vdd pfet_03v3 L=0.5U W=3U AS=1.95P AD=1.95P PS=7.3U
+ PD=7.3U
M$206 vdd \$704 \$815 vdd pfet_03v3 L=0.5U W=3U AS=1.95P AD=1.95P PS=7.3U
+ PD=7.3U
M$207 vdd \$102 \$704 vdd pfet_03v3 L=0.5U W=3U AS=1.95P AD=1.95P PS=7.3U
+ PD=7.3U
M$208 \$897 \$705 vdd vdd pfet_03v3 L=0.5U W=3U AS=1.95P AD=1.95P PS=7.3U
+ PD=7.3U
M$209 \$766 rst vdd vdd pfet_03v3 L=0.5U W=3U AS=1.95P AD=1.95P PS=7.3U PD=7.3U
M$210 vdd \$766 \$892 vdd pfet_03v3 L=0.5U W=3U AS=1.95P AD=1.95P PS=7.3U
+ PD=7.3U
M$211 \$892 \$759 vdd vdd pfet_03v3 L=0.5U W=3U AS=1.95P AD=1.95P PS=7.3U
+ PD=7.3U
M$212 vdd \$707 \$817 vdd pfet_03v3 L=0.5U W=3U AS=1.95P AD=1.95P PS=7.3U
+ PD=7.3U
M$213 vdd \$99 \$707 vdd pfet_03v3 L=0.5U W=3U AS=1.95P AD=1.95P PS=7.3U PD=7.3U
M$214 \$52 \$25 \$1 vss nfet_03v3 L=0.5U W=2U AS=1.22P AD=1.22P PS=5.22U
+ PD=5.22U
M$215 \$53 \$13 \$2 vss nfet_03v3 L=0.5U W=2U AS=1.22P AD=1.22P PS=5.22U
+ PD=5.22U
M$216 \$56 \$15 \$3 vss nfet_03v3 L=0.5U W=2U AS=1.22P AD=1.22P PS=5.22U
+ PD=5.22U
M$217 \$57 \$16 \$70 vss nfet_03v3 L=0.5U W=2U AS=1.22P AD=1.22P PS=5.22U
+ PD=5.22U
M$218 \$60 \$18 \$17 vss nfet_03v3 L=0.5U W=2U AS=1.22P AD=1.22P PS=5.22U
+ PD=5.22U
M$219 \$61 \$19 \$71 vss nfet_03v3 L=0.5U W=2U AS=1.22P AD=1.22P PS=5.22U
+ PD=5.22U
M$220 \$64 \$21 \$20 vss nfet_03v3 L=0.5U W=2U AS=1.22P AD=1.22P PS=5.22U
+ PD=5.22U
M$221 \$65 \$22 \$72 vss nfet_03v3 L=0.5U W=2U AS=1.22P AD=1.22P PS=5.22U
+ PD=5.22U
M$222 \$68 \$24 \$23 vss nfet_03v3 L=0.5U W=2U AS=1.22P AD=1.22P PS=5.22U
+ PD=5.22U
M$223 vss \$94 \$52 vss nfet_03v3 L=0.5U W=2U AS=1.22P AD=1.22P PS=5.22U
+ PD=5.22U
M$224 vss \$95 \$53 vss nfet_03v3 L=0.5U W=2U AS=1.22P AD=1.22P PS=5.22U
+ PD=5.22U
M$225 vss \$98 \$56 vss nfet_03v3 L=0.5U W=2U AS=1.22P AD=1.22P PS=5.22U
+ PD=5.22U
M$226 vss \$99 \$57 vss nfet_03v3 L=0.5U W=2U AS=1.22P AD=1.22P PS=5.22U
+ PD=5.22U
M$227 vss \$102 \$60 vss nfet_03v3 L=0.5U W=2U AS=1.22P AD=1.22P PS=5.22U
+ PD=5.22U
M$228 vss \$103 \$61 vss nfet_03v3 L=0.5U W=2U AS=1.22P AD=1.22P PS=5.22U
+ PD=5.22U
M$229 vss \$106 \$64 vss nfet_03v3 L=0.5U W=2U AS=1.22P AD=1.22P PS=5.22U
+ PD=5.22U
M$230 vss \$741 \$65 vss nfet_03v3 L=0.5U W=2U AS=1.22P AD=1.22P PS=5.22U
+ PD=5.22U
M$231 vss \$109 \$68 vss nfet_03v3 L=0.5U W=2U AS=1.22P AD=1.22P PS=5.22U
+ PD=5.22U
M$232 \$11 \$4 vss vss nfet_03v3 L=0.5U W=1U AS=0.61P AD=0.61P PS=3.22U PD=3.22U
M$233 \$12 \$5 vss vss nfet_03v3 L=0.5U W=1U AS=0.61P AD=0.61P PS=3.22U PD=3.22U
M$234 \$112 \$2 vss vss nfet_03v3 L=0.5U W=2U AS=1.22P AD=1.22P PS=5.22U
+ PD=5.22U
M$235 \$4 \$1 \$112 vss nfet_03v3 L=0.5U W=2U AS=1.22P AD=1.22P PS=5.22U
+ PD=5.22U
M$236 \$113 \$26 vss vss nfet_03v3 L=0.5U W=2U AS=1.22P AD=1.22P PS=5.22U
+ PD=5.22U
M$237 \$5 \$11 \$113 vss nfet_03v3 L=0.5U W=2U AS=1.22P AD=1.22P PS=5.22U
+ PD=5.22U
M$238 \$135 d1 \$1 vss nfet_03v3 L=0.5U W=2U AS=1.22P AD=1.22P PS=5.22U PD=5.22U
M$239 \$136 d2 \$2 vss nfet_03v3 L=0.5U W=2U AS=1.22P AD=1.22P PS=5.22U PD=5.22U
M$240 \$139 d3 \$3 vss nfet_03v3 L=0.5U W=2U AS=1.22P AD=1.22P PS=5.22U PD=5.22U
M$241 \$140 d4 \$70 vss nfet_03v3 L=0.5U W=2U AS=1.22P AD=1.22P PS=5.22U
+ PD=5.22U
M$242 \$143 d5 \$17 vss nfet_03v3 L=0.5U W=2U AS=1.22P AD=1.22P PS=5.22U
+ PD=5.22U
M$243 \$144 d6 \$71 vss nfet_03v3 L=0.5U W=2U AS=1.22P AD=1.22P PS=5.22U
+ PD=5.22U
M$244 \$147 d7 \$20 vss nfet_03v3 L=0.5U W=2U AS=1.22P AD=1.22P PS=5.22U
+ PD=5.22U
M$245 \$148 d8 \$72 vss nfet_03v3 L=0.5U W=2U AS=1.22P AD=1.22P PS=5.22U
+ PD=5.22U
M$246 \$151 d9 \$23 vss nfet_03v3 L=0.5U W=2U AS=1.22P AD=1.22P PS=5.22U
+ PD=5.22U
M$247 \$26 \$158 vss vss nfet_03v3 L=0.5U W=1U AS=0.61P AD=0.61P PS=3.22U
+ PD=3.22U
M$248 \$152 \$160 vss vss nfet_03v3 L=0.5U W=1U AS=0.61P AD=0.61P PS=3.22U
+ PD=3.22U
M$249 vss \$183 \$135 vss nfet_03v3 L=0.5U W=2U AS=1.22P AD=1.22P PS=5.22U
+ PD=5.22U
M$250 vss \$184 \$136 vss nfet_03v3 L=0.5U W=2U AS=1.22P AD=1.22P PS=5.22U
+ PD=5.22U
M$251 vss \$185 \$139 vss nfet_03v3 L=0.5U W=2U AS=1.22P AD=1.22P PS=5.22U
+ PD=5.22U
M$252 vss \$186 \$140 vss nfet_03v3 L=0.5U W=2U AS=1.22P AD=1.22P PS=5.22U
+ PD=5.22U
M$253 vss \$187 \$143 vss nfet_03v3 L=0.5U W=2U AS=1.22P AD=1.22P PS=5.22U
+ PD=5.22U
M$254 vss \$188 \$144 vss nfet_03v3 L=0.5U W=2U AS=1.22P AD=1.22P PS=5.22U
+ PD=5.22U
M$255 vss \$189 \$147 vss nfet_03v3 L=0.5U W=2U AS=1.22P AD=1.22P PS=5.22U
+ PD=5.22U
M$256 vss \$190 \$148 vss nfet_03v3 L=0.5U W=2U AS=1.22P AD=1.22P PS=5.22U
+ PD=5.22U
M$257 vss \$191 \$151 vss nfet_03v3 L=0.5U W=2U AS=1.22P AD=1.22P PS=5.22U
+ PD=5.22U
M$258 \$183 \$94 vss vss nfet_03v3 L=0.5U W=1U AS=0.61P AD=0.61P PS=3.22U
+ PD=3.22U
M$259 \$25 d1 vss vss nfet_03v3 L=0.5U W=1U AS=0.61P AD=0.61P PS=3.22U PD=3.22U
M$260 vss d2 \$13 vss nfet_03v3 L=0.5U W=1U AS=0.61P AD=0.61P PS=3.22U PD=3.22U
M$261 vss \$95 \$184 vss nfet_03v3 L=0.5U W=1U AS=0.61P AD=0.61P PS=3.22U
+ PD=3.22U
M$262 \$185 \$98 vss vss nfet_03v3 L=0.5U W=1U AS=0.61P AD=0.61P PS=3.22U
+ PD=3.22U
M$263 \$15 d3 vss vss nfet_03v3 L=0.5U W=1U AS=0.61P AD=0.61P PS=3.22U PD=3.22U
M$264 vss d4 \$16 vss nfet_03v3 L=0.5U W=1U AS=0.61P AD=0.61P PS=3.22U PD=3.22U
M$265 vss \$99 \$186 vss nfet_03v3 L=0.5U W=1U AS=0.61P AD=0.61P PS=3.22U
+ PD=3.22U
M$266 \$187 \$102 vss vss nfet_03v3 L=0.5U W=1U AS=0.61P AD=0.61P PS=3.22U
+ PD=3.22U
M$267 \$18 d5 vss vss nfet_03v3 L=0.5U W=1U AS=0.61P AD=0.61P PS=3.22U PD=3.22U
M$268 vss d6 \$19 vss nfet_03v3 L=0.5U W=1U AS=0.61P AD=0.61P PS=3.22U PD=3.22U
M$269 vss \$103 \$188 vss nfet_03v3 L=0.5U W=1U AS=0.61P AD=0.61P PS=3.22U
+ PD=3.22U
M$270 \$189 \$106 vss vss nfet_03v3 L=0.5U W=1U AS=0.61P AD=0.61P PS=3.22U
+ PD=3.22U
M$271 \$21 d7 vss vss nfet_03v3 L=0.5U W=1U AS=0.61P AD=0.61P PS=3.22U PD=3.22U
M$272 vss d8 \$22 vss nfet_03v3 L=0.5U W=1U AS=0.61P AD=0.61P PS=3.22U PD=3.22U
M$273 vss \$741 \$190 vss nfet_03v3 L=0.5U W=1U AS=0.61P AD=0.61P PS=3.22U
+ PD=3.22U
M$274 \$191 \$109 vss vss nfet_03v3 L=0.5U W=1U AS=0.61P AD=0.61P PS=3.22U
+ PD=3.22U
M$275 \$24 d9 vss vss nfet_03v3 L=0.5U W=1U AS=0.61P AD=0.61P PS=3.22U PD=3.22U
M$276 \$194 \$3 vss vss nfet_03v3 L=0.5U W=2U AS=1.22P AD=1.22P PS=5.22U
+ PD=5.22U
M$277 \$158 \$70 \$194 vss nfet_03v3 L=0.5U W=2U AS=1.22P AD=1.22P PS=5.22U
+ PD=5.22U
M$278 \$195 \$12 vss vss nfet_03v3 L=0.5U W=2U AS=1.22P AD=1.22P PS=5.22U
+ PD=5.22U
M$279 \$160 \$250 \$195 vss nfet_03v3 L=0.5U W=2U AS=1.22P AD=1.22P PS=5.22U
+ PD=5.22U
M$280 \$420 a vss vss nfet_03v3 L=0.5U W=1U AS=0.61P AD=0.61P PS=3.22U PD=3.22U
M$281 \$413 \$420 vss vss nfet_03v3 L=0.5U W=1U AS=0.61P AD=0.61P PS=3.22U
+ PD=3.22U
M$282 \$412 \$413 \$421 vss nfet_03v3 L=0.5U W=1U AS=0.61P AD=0.61P PS=3.22U
+ PD=3.22U
M$283 vss rst \$422 vss nfet_03v3 L=0.5U W=1U AS=0.61P AD=0.61P PS=3.22U
+ PD=3.22U
M$284 \$424 \$420 \$423 vss nfet_03v3 L=0.5U W=1U AS=0.61P AD=0.61P PS=3.22U
+ PD=3.22U
M$285 vss \$449 \$424 vss nfet_03v3 L=0.5U W=1U AS=0.61P AD=0.61P PS=3.22U
+ PD=3.22U
M$286 \$425 \$94 vss vss nfet_03v3 L=0.5U W=1U AS=0.61P AD=0.61P PS=3.22U
+ PD=3.22U
M$287 \$415 \$425 vss vss nfet_03v3 L=0.5U W=1U AS=0.61P AD=0.61P PS=3.22U
+ PD=3.22U
M$288 \$414 \$415 \$426 vss nfet_03v3 L=0.5U W=1U AS=0.61P AD=0.61P PS=3.22U
+ PD=3.22U
M$289 vss rst \$427 vss nfet_03v3 L=0.5U W=1U AS=0.61P AD=0.61P PS=3.22U
+ PD=3.22U
M$290 \$429 \$425 \$428 vss nfet_03v3 L=0.5U W=1U AS=0.61P AD=0.61P PS=3.22U
+ PD=3.22U
M$291 vss \$450 \$429 vss nfet_03v3 L=0.5U W=1U AS=0.61P AD=0.61P PS=3.22U
+ PD=3.22U
M$292 \$416 \$417 \$431 vss nfet_03v3 L=0.5U W=1U AS=0.61P AD=0.61P PS=3.22U
+ PD=3.22U
M$293 \$434 \$430 \$433 vss nfet_03v3 L=0.5U W=1U AS=0.61P AD=0.61P PS=3.22U
+ PD=3.22U
M$294 \$418 \$419 \$436 vss nfet_03v3 L=0.5U W=1U AS=0.61P AD=0.61P PS=3.22U
+ PD=3.22U
M$295 \$439 \$435 \$438 vss nfet_03v3 L=0.5U W=1U AS=0.61P AD=0.61P PS=3.22U
+ PD=3.22U
M$296 \$453 \$71 vss vss nfet_03v3 L=0.5U W=2U AS=1.22P AD=1.22P PS=5.22U
+ PD=5.22U
M$297 \$337 \$17 \$453 vss nfet_03v3 L=0.5U W=2U AS=1.22P AD=1.22P PS=5.22U
+ PD=5.22U
M$298 \$441 \$337 vss vss nfet_03v3 L=0.5U W=1U AS=0.61P AD=0.61P PS=3.22U
+ PD=3.22U
M$299 \$454 \$23 vss vss nfet_03v3 L=0.5U W=2U AS=1.22P AD=1.22P PS=5.22U
+ PD=5.22U
M$300 \$339 \$152 \$454 vss nfet_03v3 L=0.5U W=2U AS=1.22P AD=1.22P PS=5.22U
+ PD=5.22U
M$301 done \$339 vss vss nfet_03v3 L=0.5U W=1U AS=0.61P AD=0.61P PS=3.22U
+ PD=3.22U
M$302 \$500 \$444 \$412 vss nfet_03v3 L=0.5U W=2U AS=1.22P AD=1.22P PS=5.22U
+ PD=5.22U
M$303 vss \$422 \$500 vss nfet_03v3 L=0.5U W=2U AS=1.22P AD=1.22P PS=5.22U
+ PD=5.22U
M$304 \$501 \$445 \$414 vss nfet_03v3 L=0.5U W=2U AS=1.22P AD=1.22P PS=5.22U
+ PD=5.22U
M$305 vss \$427 \$501 vss nfet_03v3 L=0.5U W=2U AS=1.22P AD=1.22P PS=5.22U
+ PD=5.22U
M$306 \$430 \$95 vss vss nfet_03v3 L=0.5U W=1U AS=0.61P AD=0.61P PS=3.22U
+ PD=3.22U
M$307 \$417 \$430 vss vss nfet_03v3 L=0.5U W=1U AS=0.61P AD=0.61P PS=3.22U
+ PD=3.22U
M$308 \$502 \$446 \$416 vss nfet_03v3 L=0.5U W=2U AS=1.22P AD=1.22P PS=5.22U
+ PD=5.22U
M$309 vss \$432 \$502 vss nfet_03v3 L=0.5U W=2U AS=1.22P AD=1.22P PS=5.22U
+ PD=5.22U
M$310 vss rst \$432 vss nfet_03v3 L=0.5U W=1U AS=0.61P AD=0.61P PS=3.22U
+ PD=3.22U
M$311 vss \$451 \$434 vss nfet_03v3 L=0.5U W=1U AS=0.61P AD=0.61P PS=3.22U
+ PD=3.22U
M$312 \$435 \$98 vss vss nfet_03v3 L=0.5U W=1U AS=0.61P AD=0.61P PS=3.22U
+ PD=3.22U
M$313 \$419 \$435 vss vss nfet_03v3 L=0.5U W=1U AS=0.61P AD=0.61P PS=3.22U
+ PD=3.22U
M$314 \$503 \$447 \$418 vss nfet_03v3 L=0.5U W=2U AS=1.22P AD=1.22P PS=5.22U
+ PD=5.22U
M$315 vss \$437 \$503 vss nfet_03v3 L=0.5U W=2U AS=1.22P AD=1.22P PS=5.22U
+ PD=5.22U
M$316 vss rst \$437 vss nfet_03v3 L=0.5U W=1U AS=0.61P AD=0.61P PS=3.22U
+ PD=3.22U
M$317 vss \$452 \$439 vss nfet_03v3 L=0.5U W=1U AS=0.61P AD=0.61P PS=3.22U
+ PD=3.22U
M$318 \$504 \$20 vss vss nfet_03v3 L=0.5U W=2U AS=1.22P AD=1.22P PS=5.22U
+ PD=5.22U
M$319 \$505 \$72 \$504 vss nfet_03v3 L=0.5U W=2U AS=1.22P AD=1.22P PS=5.22U
+ PD=5.22U
M$320 \$506 \$441 vss vss nfet_03v3 L=0.5U W=2U AS=1.22P AD=1.22P PS=5.22U
+ PD=5.22U
M$321 \$507 \$572 \$506 vss nfet_03v3 L=0.5U W=2U AS=1.22P AD=1.22P PS=5.22U
+ PD=5.22U
M$322 \$589 \$449 vss vss nfet_03v3 L=0.5U W=1U AS=0.61P AD=0.61P PS=3.22U
+ PD=3.22U
M$323 \$421 \$420 \$589 vss nfet_03v3 L=0.5U W=1U AS=0.61P AD=0.61P PS=3.22U
+ PD=3.22U
M$324 \$444 \$421 vss vss nfet_03v3 L=0.5U W=1U AS=0.61P AD=0.61P PS=3.22U
+ PD=3.22U
M$325 \$743 \$809 \$742 vss nfet_03v3 L=0.5U W=1U AS=0.61P AD=0.61P PS=3.22U
+ PD=3.22U
M$326 \$423 \$413 \$444 vss nfet_03v3 L=0.5U W=1U AS=0.61P AD=0.61P PS=3.22U
+ PD=3.22U
M$327 \$583 \$423 vss vss nfet_03v3 L=0.5U W=2U AS=1.22P AD=1.22P PS=5.22U
+ PD=5.22U
M$328 \$449 \$422 \$583 vss nfet_03v3 L=0.5U W=2U AS=1.22P AD=1.22P PS=5.22U
+ PD=5.22U
M$329 \$745 \$695 \$744 vss nfet_03v3 L=0.5U W=1U AS=0.61P AD=0.61P PS=3.22U
+ PD=3.22U
M$330 \$94 \$449 vss vss nfet_03v3 L=0.5U W=1U AS=0.61P AD=0.61P PS=3.22U
+ PD=3.22U
M$331 \$590 \$450 vss vss nfet_03v3 L=0.5U W=1U AS=0.61P AD=0.61P PS=3.22U
+ PD=3.22U
M$332 \$426 \$425 \$590 vss nfet_03v3 L=0.5U W=1U AS=0.61P AD=0.61P PS=3.22U
+ PD=3.22U
M$333 \$445 \$426 vss vss nfet_03v3 L=0.5U W=1U AS=0.61P AD=0.61P PS=3.22U
+ PD=3.22U
M$334 \$747 \$811 \$746 vss nfet_03v3 L=0.5U W=1U AS=0.61P AD=0.61P PS=3.22U
+ PD=3.22U
M$335 \$428 \$415 \$445 vss nfet_03v3 L=0.5U W=1U AS=0.61P AD=0.61P PS=3.22U
+ PD=3.22U
M$336 \$584 \$428 vss vss nfet_03v3 L=0.5U W=2U AS=1.22P AD=1.22P PS=5.22U
+ PD=5.22U
M$337 \$450 \$427 \$584 vss nfet_03v3 L=0.5U W=2U AS=1.22P AD=1.22P PS=5.22U
+ PD=5.22U
M$338 \$749 \$698 \$748 vss nfet_03v3 L=0.5U W=1U AS=0.61P AD=0.61P PS=3.22U
+ PD=3.22U
M$339 \$95 \$450 vss vss nfet_03v3 L=0.5U W=1U AS=0.61P AD=0.61P PS=3.22U
+ PD=3.22U
M$340 \$591 \$451 vss vss nfet_03v3 L=0.5U W=1U AS=0.61P AD=0.61P PS=3.22U
+ PD=3.22U
M$341 \$431 \$430 \$591 vss nfet_03v3 L=0.5U W=1U AS=0.61P AD=0.61P PS=3.22U
+ PD=3.22U
M$342 \$446 \$431 vss vss nfet_03v3 L=0.5U W=1U AS=0.61P AD=0.61P PS=3.22U
+ PD=3.22U
M$343 \$751 \$813 \$750 vss nfet_03v3 L=0.5U W=1U AS=0.61P AD=0.61P PS=3.22U
+ PD=3.22U
M$344 \$433 \$417 \$446 vss nfet_03v3 L=0.5U W=1U AS=0.61P AD=0.61P PS=3.22U
+ PD=3.22U
M$345 \$587 \$433 vss vss nfet_03v3 L=0.5U W=2U AS=1.22P AD=1.22P PS=5.22U
+ PD=5.22U
M$346 \$451 \$432 \$587 vss nfet_03v3 L=0.5U W=2U AS=1.22P AD=1.22P PS=5.22U
+ PD=5.22U
M$347 \$753 \$701 \$752 vss nfet_03v3 L=0.5U W=1U AS=0.61P AD=0.61P PS=3.22U
+ PD=3.22U
M$348 \$98 \$451 vss vss nfet_03v3 L=0.5U W=1U AS=0.61P AD=0.61P PS=3.22U
+ PD=3.22U
M$349 \$592 \$452 vss vss nfet_03v3 L=0.5U W=1U AS=0.61P AD=0.61P PS=3.22U
+ PD=3.22U
M$350 \$436 \$435 \$592 vss nfet_03v3 L=0.5U W=1U AS=0.61P AD=0.61P PS=3.22U
+ PD=3.22U
M$351 \$447 \$436 vss vss nfet_03v3 L=0.5U W=1U AS=0.61P AD=0.61P PS=3.22U
+ PD=3.22U
M$352 \$755 \$815 \$754 vss nfet_03v3 L=0.5U W=1U AS=0.61P AD=0.61P PS=3.22U
+ PD=3.22U
M$353 \$438 \$419 \$447 vss nfet_03v3 L=0.5U W=1U AS=0.61P AD=0.61P PS=3.22U
+ PD=3.22U
M$354 \$588 \$438 vss vss nfet_03v3 L=0.5U W=2U AS=1.22P AD=1.22P PS=5.22U
+ PD=5.22U
M$355 \$452 \$437 \$588 vss nfet_03v3 L=0.5U W=2U AS=1.22P AD=1.22P PS=5.22U
+ PD=5.22U
M$356 \$757 \$704 \$756 vss nfet_03v3 L=0.5U W=1U AS=0.61P AD=0.61P PS=3.22U
+ PD=3.22U
M$357 \$99 \$452 vss vss nfet_03v3 L=0.5U W=1U AS=0.61P AD=0.61P PS=3.22U
+ PD=3.22U