* NGSPICE file created from top_level_20250921.ext - technology: gf180mcuD

.subckt cap_nmos$2 a_88_n92# a_0_0#
X0 a_88_n92# a_0_0# cap_nmos_03v3 c_width=10u c_length=10u
.ends

.subckt DECAP_SC$1 a_n313_2257# vdd vss
Xcap_nmos$2_0 vdd vss cap_nmos$2
Xcap_nmos$2_1 vdd vss cap_nmos$2
Xcap_nmos$2_2 vdd vss cap_nmos$2
Xcap_nmos$2_3 vdd vss cap_nmos$2
.ends

.subckt DECAP_LARGE vdd vss
XDECAP_SC$1_121 vss vdd vss DECAP_SC$1
XDECAP_SC$1_110 vss vdd vss DECAP_SC$1
XDECAP_SC$1_70 vss vdd vss DECAP_SC$1
XDECAP_SC$1_81 vss vdd vss DECAP_SC$1
XDECAP_SC$1_92 vss vdd vss DECAP_SC$1
XDECAP_SC$1_122 vss vdd vss DECAP_SC$1
XDECAP_SC$1_100 vss vdd vss DECAP_SC$1
XDECAP_SC$1_111 vss vdd vss DECAP_SC$1
XDECAP_SC$1_71 vss vdd vss DECAP_SC$1
XDECAP_SC$1_60 vss vdd vss DECAP_SC$1
XDECAP_SC$1_93 vss vdd vss DECAP_SC$1
XDECAP_SC$1_82 vss vdd vss DECAP_SC$1
XDECAP_SC$1_123 vss vdd vss DECAP_SC$1
XDECAP_SC$1_101 vss vdd vss DECAP_SC$1
XDECAP_SC$1_112 DECAP_SC$1_112/a_n313_2257# vdd vss DECAP_SC$1
XDECAP_SC$1_50 vss vdd vss DECAP_SC$1
XDECAP_SC$1_72 DECAP_SC$1_72/a_n313_2257# vdd vss DECAP_SC$1
XDECAP_SC$1_94 vss vdd vss DECAP_SC$1
XDECAP_SC$1_61 vss vdd vss DECAP_SC$1
XDECAP_SC$1_83 vss vdd vss DECAP_SC$1
XDECAP_SC$1_102 DECAP_SC$1_102/a_n313_2257# vdd vss DECAP_SC$1
XDECAP_SC$1_124 vss vdd vss DECAP_SC$1
XDECAP_SC$1_113 vss vdd vss DECAP_SC$1
XDECAP_SC$1_40 DECAP_SC$1_40/a_n313_2257# vdd vss DECAP_SC$1
XDECAP_SC$1_51 vss vdd vss DECAP_SC$1
XDECAP_SC$1_73 vss vdd vss DECAP_SC$1
XDECAP_SC$1_95 vss vdd vss DECAP_SC$1
XDECAP_SC$1_62 vss vdd vss DECAP_SC$1
XDECAP_SC$1_84 vss vdd vss DECAP_SC$1
XDECAP_SC$1_103 DECAP_SC$1_103/a_n313_2257# vdd vss DECAP_SC$1
XDECAP_SC$1_125 vss vdd vss DECAP_SC$1
XDECAP_SC$1_114 vss vdd vss DECAP_SC$1
XDECAP_SC$1_52 DECAP_SC$1_52/a_n313_2257# vdd vss DECAP_SC$1
XDECAP_SC$1_41 DECAP_SC$1_41/a_n313_2257# vdd vss DECAP_SC$1
XDECAP_SC$1_30 vss vdd vss DECAP_SC$1
XDECAP_SC$1_96 DECAP_SC$1_96/a_n313_2257# vdd vss DECAP_SC$1
XDECAP_SC$1_63 vss vdd vss DECAP_SC$1
XDECAP_SC$1_74 vss vdd vss DECAP_SC$1
XDECAP_SC$1_85 vss vdd vss DECAP_SC$1
XDECAP_SC$1_104 DECAP_SC$1_104/a_n313_2257# vdd vss DECAP_SC$1
XDECAP_SC$1_115 vss vdd vss DECAP_SC$1
XDECAP_SC$1_64 vss vdd vss DECAP_SC$1
XDECAP_SC$1_42 vss vdd vss DECAP_SC$1
XDECAP_SC$1_31 vss vdd vss DECAP_SC$1
XDECAP_SC$1_20 vss vdd vss DECAP_SC$1
XDECAP_SC$1_97 vss vdd vss DECAP_SC$1
XDECAP_SC$1_53 vss vdd vss DECAP_SC$1
XDECAP_SC$1_75 vss vdd vss DECAP_SC$1
XDECAP_SC$1_86 vss vdd vss DECAP_SC$1
XDECAP_SC$1_105 DECAP_SC$1_105/a_n313_2257# vdd vss DECAP_SC$1
XDECAP_SC$1_116 vss vdd vss DECAP_SC$1
XDECAP_SC$1_65 vss vdd vss DECAP_SC$1
XDECAP_SC$1_43 vss vdd vss DECAP_SC$1
XDECAP_SC$1_54 vss vdd vss DECAP_SC$1
XDECAP_SC$1_21 vss vdd vss DECAP_SC$1
XDECAP_SC$1_10 vss vdd vss DECAP_SC$1
XDECAP_SC$1_98 vss vdd vss DECAP_SC$1
XDECAP_SC$1_32 DECAP_SC$1_32/a_n313_2257# vdd vss DECAP_SC$1
XDECAP_SC$1_76 vss vdd vss DECAP_SC$1
XDECAP_SC$1_87 vss vdd vss DECAP_SC$1
XDECAP_SC$1_106 DECAP_SC$1_106/a_n313_2257# vdd vss DECAP_SC$1
XDECAP_SC$1_117 vss vdd vss DECAP_SC$1
XDECAP_SC$1_66 vss vdd vss DECAP_SC$1
XDECAP_SC$1_44 DECAP_SC$1_44/a_n313_2257# vdd vss DECAP_SC$1
XDECAP_SC$1_88 vss vdd vss DECAP_SC$1
XDECAP_SC$1_55 vss vdd vss DECAP_SC$1
XDECAP_SC$1_22 vss vdd vss DECAP_SC$1
XDECAP_SC$1_11 vss vdd vss DECAP_SC$1
XDECAP_SC$1_99 vss vdd vss DECAP_SC$1
XDECAP_SC$1_33 vss vdd vss DECAP_SC$1
XDECAP_SC$1_77 vss vdd vss DECAP_SC$1
XDECAP_SC$1_107 DECAP_SC$1_107/a_n313_2257# vdd vss DECAP_SC$1
XDECAP_SC$1_118 vss vdd vss DECAP_SC$1
XDECAP_SC$1_67 vss vdd vss DECAP_SC$1
XDECAP_SC$1_89 vss vdd vss DECAP_SC$1
XDECAP_SC$1_56 vss vdd vss DECAP_SC$1
XDECAP_SC$1_23 vss vdd vss DECAP_SC$1
XDECAP_SC$1_12 DECAP_SC$1_12/a_n313_2257# vdd vss DECAP_SC$1
XDECAP_SC$1_34 vss vdd vss DECAP_SC$1
XDECAP_SC$1_45 DECAP_SC$1_45/a_n313_2257# vdd vss DECAP_SC$1
XDECAP_SC$1_78 vss vdd vss DECAP_SC$1
XDECAP_SC$1_108 DECAP_SC$1_108/a_n313_2257# vdd vss DECAP_SC$1
XDECAP_SC$1_119 vss vdd vss DECAP_SC$1
XDECAP_SC$1_46 vss vdd vss DECAP_SC$1
XDECAP_SC$1_68 vss vdd vss DECAP_SC$1
XDECAP_SC$1_57 vss vdd vss DECAP_SC$1
XDECAP_SC$1_24 vss vdd vss DECAP_SC$1
XDECAP_SC$1_13 vss vdd vss DECAP_SC$1
XDECAP_SC$1_35 vss vdd vss DECAP_SC$1
XDECAP_SC$1_79 vss vdd vss DECAP_SC$1
XDECAP_SC$1_109 DECAP_SC$1_109/a_n313_2257# vdd vss DECAP_SC$1
XDECAP_SC$1_47 vss vdd vss DECAP_SC$1
XDECAP_SC$1_69 vss vdd vss DECAP_SC$1
XDECAP_SC$1_25 vss vdd vss DECAP_SC$1
XDECAP_SC$1_14 vss vdd vss DECAP_SC$1
XDECAP_SC$1_58 vss vdd vss DECAP_SC$1
XDECAP_SC$1_36 vss vdd vss DECAP_SC$1
XDECAP_SC$1_48 vss vdd vss DECAP_SC$1
XDECAP_SC$1_26 vss vdd vss DECAP_SC$1
XDECAP_SC$1_15 vss vdd vss DECAP_SC$1
XDECAP_SC$1_59 DECAP_SC$1_59/a_n313_2257# vdd vss DECAP_SC$1
XDECAP_SC$1_37 vss vdd vss DECAP_SC$1
XDECAP_SC$1_49 vss vdd vss DECAP_SC$1
XDECAP_SC$1_0 vss vdd vss DECAP_SC$1
XDECAP_SC$1_27 vss vdd vss DECAP_SC$1
XDECAP_SC$1_16 vss vdd vss DECAP_SC$1
XDECAP_SC$1_38 vss vdd vss DECAP_SC$1
XDECAP_SC$1_1 vss vdd vss DECAP_SC$1
XDECAP_SC$1_28 vss vdd vss DECAP_SC$1
XDECAP_SC$1_17 vss vdd vss DECAP_SC$1
XDECAP_SC$1_39 vss vdd vss DECAP_SC$1
XDECAP_SC$1_2 DECAP_SC$1_2/a_n313_2257# vdd vss DECAP_SC$1
XDECAP_SC$1_29 vss vdd vss DECAP_SC$1
XDECAP_SC$1_18 vss vdd vss DECAP_SC$1
XDECAP_SC$1_3 DECAP_SC$1_3/a_n313_2257# vdd vss DECAP_SC$1
XDECAP_SC$1_19 vss vdd vss DECAP_SC$1
XDECAP_SC$1_4 DECAP_SC$1_4/a_n313_2257# vdd vss DECAP_SC$1
XDECAP_SC$1_5 DECAP_SC$1_5/a_n313_2257# vdd vss DECAP_SC$1
XDECAP_SC$1_6 DECAP_SC$1_6/a_n313_2257# vdd vss DECAP_SC$1
XDECAP_SC$1_7 DECAP_SC$1_7/a_n313_2257# vdd vss DECAP_SC$1
XDECAP_SC$1_8 DECAP_SC$1_8/a_n313_2257# vdd vss DECAP_SC$1
XDECAP_SC$1_9 DECAP_SC$1_9/a_n313_2257# vdd vss DECAP_SC$1
XDECAP_SC$1_90 DECAP_SC$1_90/a_n313_2257# vdd vss DECAP_SC$1
XDECAP_SC$1_120 DECAP_SC$1_120/a_n313_2257# vdd vss DECAP_SC$1
XDECAP_SC$1_80 vss vdd vss DECAP_SC$1
XDECAP_SC$1_91 DECAP_SC$1_91/a_n313_2257# vdd vss DECAP_SC$1
.ends

.subckt ppolyf_u_resistor$9 a_n376_0# a_5400_0# a_n132_0#
X0 a_n132_0# a_5400_0# a_n376_0# ppolyf_u r_width=1u r_length=27u
.ends

.subckt ppolyf_u_resistor$8 a_n376_0# a_1100_0# a_n132_0#
X0 a_n132_0# a_1100_0# a_n376_0# ppolyf_u r_width=40u r_length=5.5u
.ends

.subckt diode_pd2nw$1 w_n224_n86# a_0_0#
D0 a_0_0# w_n224_n86# diode_pd2nw_03v3 pj=40u area=99.99999p
.ends

.subckt diode_nd2ps$1 a_n168_0# a_0_0#
D0 a_n168_0# a_0_0# diode_nd2ps_03v3 pj=40u area=99.99999p
.ends

.subckt io_secondary_3p3 ASIG3V3 VDD VSS to_gate
Xppolyf_u_resistor$8_0 VSS ASIG3V3 to_gate ppolyf_u_resistor$8
Xdiode_pd2nw$1_0 VDD to_gate diode_pd2nw$1
Xdiode_pd2nw$1_1 VDD to_gate diode_pd2nw$1
Xdiode_pd2nw$1_3 VDD to_gate diode_pd2nw$1
Xdiode_pd2nw$1_2 VDD to_gate diode_pd2nw$1
Xdiode_nd2ps$1_0 VSS to_gate diode_nd2ps$1
Xdiode_nd2ps$1_1 VSS to_gate diode_nd2ps$1
Xdiode_nd2ps$1_3 VSS to_gate diode_nd2ps$1
Xdiode_nd2ps$1_2 VSS to_gate diode_nd2ps$1
.ends

.subckt ppolyf_u_resistor a_n376_0# a_1100_0# a_n132_0#
X0 a_n132_0# a_1100_0# a_n376_0# ppolyf_u r_width=40u r_length=5.5u
.ends

.subckt nfet$465 a_38_n60# a_n84_0# a_138_0# VSUBS
X0 a_138_0# a_38_n60# a_n84_0# VSUBS nfet_03v3 ad=0.61p pd=3.22u as=0.61p ps=3.22u w=1u l=0.5u
.ends

.subckt nfet$463 a_38_n60# a_n84_0# a_138_0# VSUBS
X0 a_138_0# a_38_n60# a_n84_0# VSUBS nfet_03v3 ad=0.61p pd=3.22u as=0.61p ps=3.22u w=1u l=0.5u
.ends

.subckt nfet$461 a_750_0# a_546_0# a_446_n60# a_242_n60# a_38_n60# a_n84_0# a_342_0#
+ a_138_0# a_650_n60# VSUBS
X0 a_342_0# a_242_n60# a_138_0# VSUBS nfet_03v3 ad=1.04p pd=4.52u as=1.04p ps=4.52u w=4u l=0.5u
X1 a_546_0# a_446_n60# a_342_0# VSUBS nfet_03v3 ad=1.04p pd=4.52u as=1.04p ps=4.52u w=4u l=0.5u
X2 a_138_0# a_38_n60# a_n84_0# VSUBS nfet_03v3 ad=1.04p pd=4.52u as=2.44p ps=9.22u w=4u l=0.5u
X3 a_750_0# a_650_n60# a_546_0# VSUBS nfet_03v3 ad=2.44p pd=9.22u as=1.04p ps=4.52u w=4u l=0.5u
.ends

.subckt pfet$439 w_n180_n88# a_n92_0# a_138_0# a_38_n136#
X0 a_138_0# a_38_n136# a_n92_0# w_n180_n88# pfet_03v3 ad=1.95p pd=7.3u as=1.95p ps=7.3u w=3u l=0.5u
.ends

.subckt pfet$437 w_n180_n88# a_n92_0# a_138_0# a_38_n136#
X0 a_138_0# a_38_n136# a_n92_0# w_n180_n88# pfet_03v3 ad=1.95p pd=7.3u as=1.95p ps=7.3u w=3u l=0.5u
.ends

.subckt pfet$435 a_750_0# a_546_0# w_n180_n88# a_n92_0# a_446_n136# a_650_n136# a_342_0#
+ a_138_0# a_38_n136# a_242_n136#
X0 a_342_0# a_242_n136# a_138_0# w_n180_n88# pfet_03v3 ad=3.12p pd=12.52u as=3.12p ps=12.52u w=12u l=0.5u
X1 a_546_0# a_446_n136# a_342_0# w_n180_n88# pfet_03v3 ad=3.12p pd=12.52u as=3.12p ps=12.52u w=12u l=0.5u
X2 a_138_0# a_38_n136# a_n92_0# w_n180_n88# pfet_03v3 ad=3.12p pd=12.52u as=7.8p ps=25.3u w=12u l=0.5u
X3 a_750_0# a_650_n136# a_546_0# w_n180_n88# pfet_03v3 ad=7.8p pd=25.3u as=3.12p ps=12.52u w=12u l=0.5u
.ends

.subckt nfet$464 a_1158_0# a_750_0# a_546_0# a_446_n60# a_242_n60# a_1566_0# a_954_0#
+ a_1466_n60# a_1262_n60# a_38_n60# a_n84_0# a_1058_n60# a_854_n60# a_342_0# a_138_0#
+ a_650_n60# a_1362_0# VSUBS
X0 a_954_0# a_854_n60# a_750_0# VSUBS nfet_03v3 ad=1.04p pd=4.52u as=1.04p ps=4.52u w=4u l=0.5u
X1 a_1566_0# a_1466_n60# a_1362_0# VSUBS nfet_03v3 ad=2.44p pd=9.22u as=1.04p ps=4.52u w=4u l=0.5u
X2 a_342_0# a_242_n60# a_138_0# VSUBS nfet_03v3 ad=1.04p pd=4.52u as=1.04p ps=4.52u w=4u l=0.5u
X3 a_546_0# a_446_n60# a_342_0# VSUBS nfet_03v3 ad=1.04p pd=4.52u as=1.04p ps=4.52u w=4u l=0.5u
X4 a_1158_0# a_1058_n60# a_954_0# VSUBS nfet_03v3 ad=1.04p pd=4.52u as=1.04p ps=4.52u w=4u l=0.5u
X5 a_138_0# a_38_n60# a_n84_0# VSUBS nfet_03v3 ad=1.04p pd=4.52u as=2.44p ps=9.22u w=4u l=0.5u
X6 a_750_0# a_650_n60# a_546_0# VSUBS nfet_03v3 ad=1.04p pd=4.52u as=1.04p ps=4.52u w=4u l=0.5u
X7 a_1362_0# a_1262_n60# a_1158_0# VSUBS nfet_03v3 ad=1.04p pd=4.52u as=1.04p ps=4.52u w=4u l=0.5u
.ends

.subckt nfet$462 a_38_n60# a_n84_0# a_138_0# VSUBS
X0 a_138_0# a_38_n60# a_n84_0# VSUBS nfet_03v3 ad=2.44p pd=9.22u as=2.44p ps=9.22u w=4u l=0.5u
.ends

.subckt pfet$438 a_1158_0# a_750_0# a_1058_n136# a_546_0# a_1262_n136# a_1566_0# a_954_0#
+ w_n180_n88# a_854_n136# a_n92_0# a_446_n136# a_650_n136# a_342_0# a_1466_n136# a_138_0#
+ a_38_n136# a_1362_0# a_242_n136#
X0 a_1362_0# a_1262_n136# a_1158_0# w_n180_n88# pfet_03v3 ad=3.12p pd=12.52u as=3.12p ps=12.52u w=12u l=0.5u
X1 a_954_0# a_854_n136# a_750_0# w_n180_n88# pfet_03v3 ad=3.12p pd=12.52u as=3.12p ps=12.52u w=12u l=0.5u
X2 a_1566_0# a_1466_n136# a_1362_0# w_n180_n88# pfet_03v3 ad=7.8p pd=25.3u as=3.12p ps=12.52u w=12u l=0.5u
X3 a_342_0# a_242_n136# a_138_0# w_n180_n88# pfet_03v3 ad=3.12p pd=12.52u as=3.12p ps=12.52u w=12u l=0.5u
X4 a_546_0# a_446_n136# a_342_0# w_n180_n88# pfet_03v3 ad=3.12p pd=12.52u as=3.12p ps=12.52u w=12u l=0.5u
X5 a_1158_0# a_1058_n136# a_954_0# w_n180_n88# pfet_03v3 ad=3.12p pd=12.52u as=3.12p ps=12.52u w=12u l=0.5u
X6 a_138_0# a_38_n136# a_n92_0# w_n180_n88# pfet_03v3 ad=3.12p pd=12.52u as=7.8p ps=25.3u w=12u l=0.5u
X7 a_750_0# a_650_n136# a_546_0# w_n180_n88# pfet_03v3 ad=3.12p pd=12.52u as=3.12p ps=12.52u w=12u l=0.5u
.ends

.subckt pfet$436 w_n180_n88# a_n92_0# a_138_0# a_38_n136#
X0 a_138_0# a_38_n136# a_n92_0# w_n180_n88# pfet_03v3 ad=7.8p pd=25.3u as=7.8p ps=25.3u w=12u l=0.5u
.ends

.subckt asc_hysteresis_buffer$9 vss in vdd out
Xnfet$465_0 m1_1156_42# vss m1_884_42# vss nfet$465
Xnfet$463_0 in vss m1_348_648# vss nfet$463
Xnfet$461_0 m1_1156_42# vss m1_884_42# m1_884_42# m1_884_42# m1_1156_42# m1_1156_42#
+ vss m1_884_42# vss nfet$461
Xpfet$439_0 vdd vdd m1_884_42# m1_1156_42# pfet$439
Xpfet$437_0 vdd vdd m1_348_648# in pfet$437
Xpfet$435_0 m1_1156_42# vdd vdd m1_1156_42# m1_884_42# m1_884_42# m1_1156_42# vdd
+ m1_884_42# m1_884_42# pfet$435
Xnfet$464_0 out out vss m1_1156_42# m1_1156_42# out vss m1_1156_42# m1_1156_42# m1_1156_42#
+ out m1_1156_42# m1_1156_42# out vss m1_1156_42# vss vss nfet$464
Xnfet$462_0 m1_348_648# vss m1_884_42# vss nfet$462
Xpfet$438_0 out out m1_1156_42# vdd m1_1156_42# out vdd vdd m1_1156_42# out m1_1156_42#
+ m1_1156_42# out m1_1156_42# vdd m1_1156_42# vdd m1_1156_42# pfet$438
Xpfet$436_0 vdd vdd m1_884_42# m1_348_648# pfet$436
.ends

.subckt pfet$440 a_28_n136# w_n180_n88# a_n92_0# a_94_0#
X0 a_94_0# a_28_n136# a_n92_0# w_n180_n88# pfet_03v3 ad=2.6p pd=9.3u as=2.6p ps=9.3u w=4u l=0.28u
.ends

.subckt nfet$466 a_n84_0# a_94_0# a_30_460# VSUBS
X0 a_94_0# a_30_460# a_n84_0# VSUBS nfet_03v3 ad=1.22p pd=5.22u as=1.22p ps=5.22u w=2u l=0.28u
.ends

.subckt pfet$441 a_28_460# w_n180_n88# a_n92_0# a_94_0#
X0 a_94_0# a_28_460# a_n92_0# w_n180_n88# pfet_03v3 ad=1.3p pd=5.3u as=1.3p ps=5.3u w=2u l=0.28u
.ends

.subckt nfet$467 a_30_n132# a_n84_0# a_94_0# VSUBS
X0 a_94_0# a_30_n132# a_n84_0# VSUBS nfet_03v3 ad=1.22p pd=5.22u as=1.22p ps=5.22u w=2u l=0.28u
.ends

.subckt SCHMITT$4 VDD VSS IN OUT
Xpfet$440_0 IN VDD m1_596_1544# OUT pfet$440
Xnfet$466_0 m1_592_402# OUT IN VSS nfet$466
Xpfet$440_1 IN VDD VDD m1_596_1544# pfet$440
Xnfet$466_1 VSS m1_592_402# IN VSS nfet$466
Xpfet$441_0 OUT VDD m1_596_1544# VSS pfet$441
Xnfet$467_0 OUT m1_592_402# VDD VSS nfet$467
.ends

.subckt nfet$470 a_38_n60# a_n84_0# a_138_0# VSUBS
X0 a_138_0# a_38_n60# a_n84_0# VSUBS nfet_03v3 ad=0.61p pd=3.22u as=0.61p ps=3.22u w=1u l=0.5u
.ends

.subckt pfet$444 w_n180_n88# a_n92_0# a_138_0# a_38_n136#
X0 a_138_0# a_38_n136# a_n92_0# w_n180_n88# pfet_03v3 ad=1.95p pd=7.3u as=1.95p ps=7.3u w=3u l=0.5u
.ends

.subckt pfet$442 w_n180_n88# a_n92_0# a_438_0# a_38_n136#
X0 a_438_0# a_38_n136# a_n92_0# w_n180_n88# pfet_03v3 ad=0.65p pd=3.3u as=0.65p ps=3.3u w=1u l=2u
.ends

.subckt nfet$468 a_38_n60# a_n84_0# a_438_0# VSUBS
X0 a_438_0# a_38_n60# a_n84_0# VSUBS nfet_03v3 ad=0.305p pd=2.22u as=0.305p ps=2.22u w=0.5u l=2u
.ends

.subckt nfet$471 a_242_n60# a_38_n60# a_n84_0# a_342_0# a_138_0# VSUBS
X0 a_342_0# a_242_n60# a_138_0# VSUBS nfet_03v3 ad=0.61p pd=3.22u as=0.26p ps=1.52u w=1u l=0.5u
X1 a_138_0# a_38_n60# a_n84_0# VSUBS nfet_03v3 ad=0.26p pd=1.52u as=0.61p ps=3.22u w=1u l=0.5u
.ends

.subckt pfet$445 w_n180_n88# a_n92_0# a_138_0# a_38_n136#
X0 a_138_0# a_38_n136# a_n92_0# w_n180_n88# pfet_03v3 ad=1.95p pd=7.3u as=1.95p ps=7.3u w=3u l=0.5u
.ends

.subckt nfet$469 a_838_0# a_38_n60# a_n84_0# VSUBS
X0 a_838_0# a_38_n60# a_n84_0# VSUBS nfet_03v3 ad=0.305p pd=2.22u as=0.305p ps=2.22u w=0.5u l=4u
.ends

.subckt pfet$443 a_838_0# w_n180_n88# a_n92_0# a_38_n136#
X0 a_838_0# a_38_n136# a_n92_0# w_n180_n88# pfet_03v3 ad=0.65p pd=3.3u as=0.65p ps=3.3u w=1u l=4u
.ends

.subckt qw_NOLclk$2 CLK VDDd VSSd PHI_1 PHI_2
Xnfet$470_0 m1_11601_71# VSSd PHI_1 VSSd nfet$470
Xnfet$470_1 m1_11161_409# VSSd m1_11379_n171# VSSd nfet$470
Xnfet$470_2 m1_11601_2380# VSSd PHI_2 VSSd nfet$470
Xnfet$470_3 CLK VSSd m1_11161_409# VSSd nfet$470
Xpfet$444_0 VDDd VDDd PHI_1 m1_11601_71# pfet$444
Xpfet$444_1 VDDd VDDd m1_11379_n171# m1_11161_409# pfet$444
Xpfet$444_2 VDDd VDDd PHI_2 m1_11601_2380# pfet$444
Xpfet$444_3 VDDd VDDd m1_11161_409# CLK pfet$444
Xpfet$442_0 VDDd VDDd m1_13930_233# PHI_1 pfet$442
Xpfet$442_1 VDDd VDDd m1_13930_1818# PHI_2 pfet$442
Xnfet$468_1 PHI_2 VSSd m1_13930_1818# VSSd nfet$468
Xnfet$468_0 PHI_1 VSSd m1_13930_233# VSSd nfet$468
Xnfet$471_0 m1_12351_431# m1_12351_431# m1_11601_71# m1_11601_71# m1_11837_749# VSSd
+ nfet$471
Xnfet$471_1 m1_11379_n171# m1_11379_n171# VSSd VSSd m1_11837_749# VSSd nfet$471
Xnfet$471_2 m1_12351_2064# m1_12351_2064# m1_11601_2380# m1_11601_2380# m1_11837_1708#
+ VSSd nfet$471
Xnfet$471_3 m1_11161_409# m1_11161_409# VSSd VSSd m1_11837_1708# VSSd nfet$471
Xpfet$445_0 VDDd m1_11601_71# VDDd m1_11379_n171# pfet$445
Xpfet$445_1 VDDd VDDd m1_11601_71# m1_12351_431# pfet$445
Xpfet$445_2 VDDd m1_11601_2380# VDDd m1_11161_409# pfet$445
Xpfet$445_3 VDDd VDDd m1_11601_2380# m1_12351_2064# pfet$445
Xnfet$469_0 m1_12351_2064# m1_15103_233# VSSd VSSd nfet$469
Xpfet$443_0 m1_12351_2064# VDDd VDDd m1_15103_233# pfet$443
Xnfet$469_1 m1_15103_233# m1_13930_233# VSSd VSSd nfet$469
Xpfet$443_1 m1_15103_233# VDDd VDDd m1_13930_233# pfet$443
Xpfet$443_2 m1_12351_431# VDDd VDDd m1_15103_1818# pfet$443
Xpfet$443_3 m1_15103_1818# VDDd VDDd m1_13930_1818# pfet$443
Xnfet$469_2 m1_12351_431# m1_15103_1818# VSSd VSSd nfet$469
Xnfet$469_3 m1_15103_1818# m1_13930_1818# VSSd VSSd nfet$469
.ends

.subckt gf180mcu_fd_sc_mcu9t5v0__or2_1$4 A1 A2 VDD VSS Z VNW VPW
X0 a_255_756# A1 a_67_756# VNW pfet_05v0 ad=0.2379p pd=1.435u as=0.4026p ps=2.71u w=0.915u l=0.5u
X1 VSS A2 a_67_756# VPW nfet_05v0 ad=0.3828p pd=2.08u as=0.1716p ps=1.18u w=0.66u l=0.6u
X2 VDD A2 a_255_756# VNW pfet_05v0 ad=0.57645p pd=2.69u as=0.2379p ps=1.435u w=0.915u l=0.5u
X3 Z a_67_756# VSS VPW nfet_05v0 ad=0.5808p pd=3.52u as=0.3828p ps=2.08u w=1.32u l=0.6u
X4 Z a_67_756# VDD VNW pfet_05v0 ad=0.8052p pd=4.54u as=0.57645p ps=2.69u w=1.83u l=0.5u
X5 a_67_756# A1 VSS VPW nfet_05v0 ad=0.1716p pd=1.18u as=0.2904p ps=2.2u w=0.66u l=0.6u
.ends

.subckt gf180mcu_fd_sc_mcu9t5v0__inv_1$4 I VDD VSS ZN VNW VPW
X0 ZN I VDD VNW pfet_05v0 ad=0.8052p pd=4.54u as=0.8052p ps=4.54u w=1.83u l=0.5u
X1 ZN I VSS VPW nfet_05v0 ad=0.5808p pd=3.52u as=0.5808p ps=3.52u w=1.32u l=0.6u
.ends

.subckt gf180mcu_fd_sc_mcu9t5v0__latq_1$5 D E Q VDD VSS VNW VPW
X0 VSS a_1020_652# Q VPW nfet_05v0 ad=0.5808p pd=3.52u as=0.5808p ps=3.52u w=1.32u l=0.6u
X1 a_504_110# a_36_92# VDD VNW pfet_05v0 ad=0.44p pd=2.88u as=0.476p ps=2.18u w=1u l=0.5u
X2 VDD a_1020_652# Q VNW pfet_05v0 ad=0.8052p pd=4.54u as=0.8052p ps=4.54u w=1.83u l=0.5u
X3 a_1264_107# a_36_92# a_1020_652# VPW nfet_05v0 ad=0.263p pd=1.49u as=0.182p ps=1.22u w=0.7u l=0.6u
X4 VSS E a_36_92# VPW nfet_05v0 ad=0.263p pd=1.49u as=0.3476p ps=2.46u w=0.79u l=0.6u
X5 VSS a_1364_532# a_1264_107# VPW nfet_05v0 ad=0.2054p pd=1.31u as=0.263p ps=1.49u w=0.79u l=0.6u
X6 VDD E a_36_92# VNW pfet_05v0 ad=0.476p pd=2.18u as=0.6072p ps=3.64u w=1.38u l=0.5u
X7 VDD a_1364_532# a_1224_652# VNW pfet_05v0 ad=0.3588p pd=1.9u as=0.426p ps=2.08u w=1.38u l=0.5u
X8 a_872_652# D VDD VNW pfet_05v0 ad=0.12p pd=1.24u as=0.44p ps=2.88u w=1u l=0.5u
X9 a_1364_532# a_1020_652# VDD VNW pfet_05v0 ad=0.6072p pd=3.64u as=0.3588p ps=1.9u w=1.38u l=0.5u
X10 a_1020_652# a_504_110# a_872_107# VPW nfet_05v0 ad=0.182p pd=1.22u as=83.99999f ps=0.94u w=0.7u l=0.6u
X11 a_872_107# D VSS VPW nfet_05v0 ad=83.99999f pd=0.94u as=0.308p ps=2.28u w=0.7u l=0.6u
X12 a_1020_652# a_36_92# a_872_652# VNW pfet_05v0 ad=0.26p pd=1.52u as=0.12p ps=1.24u w=1u l=0.5u
X13 a_504_110# a_36_92# VSS VPW nfet_05v0 ad=0.308p pd=2.28u as=0.263p ps=1.49u w=0.7u l=0.6u
X14 a_1364_532# a_1020_652# VSS VPW nfet_05v0 ad=0.3476p pd=2.46u as=0.2054p ps=1.31u w=0.79u l=0.6u
X15 a_1224_652# a_504_110# a_1020_652# VNW pfet_05v0 ad=0.426p pd=2.08u as=0.26p ps=1.52u w=1u l=0.5u
.ends

.subckt DFF_2phase_1$4 VDDd PHI_2 PHI_1 D Q VSSd
Xgf180mcu_fd_sc_mcu9t5v0__latq_1$5_0 gf180mcu_fd_sc_mcu9t5v0__latq_1$5_1/Q PHI_2 Q
+ VDDd VSSd VDDd VSSd gf180mcu_fd_sc_mcu9t5v0__latq_1$5
Xgf180mcu_fd_sc_mcu9t5v0__latq_1$5_1 D PHI_1 gf180mcu_fd_sc_mcu9t5v0__latq_1$5_1/Q
+ VDDd VSSd VDDd VSSd gf180mcu_fd_sc_mcu9t5v0__latq_1$5
.ends

.subckt gf180mcu_fd_sc_mcu9t5v0__and2_1$4 A1 A2 VDD VSS Z VNW VPW
X0 VDD A2 a_36_201# VNW pfet_05v0 ad=0.5054p pd=2.57u as=0.2132p ps=1.34u w=0.82u l=0.5u
X1 a_244_201# A1 a_36_201# VPW nfet_05v0 ad=0.1056p pd=0.98u as=0.2904p ps=2.2u w=0.66u l=0.6u
X2 Z a_36_201# VSS VPW nfet_05v0 ad=0.5808p pd=3.52u as=0.3894p ps=2.06u w=1.32u l=0.6u
X3 Z a_36_201# VDD VNW pfet_05v0 ad=0.8052p pd=4.54u as=0.5054p ps=2.57u w=1.83u l=0.5u
X4 VSS A2 a_244_201# VPW nfet_05v0 ad=0.3894p pd=2.06u as=0.1056p ps=0.98u w=0.66u l=0.6u
X5 a_36_201# A1 VDD VNW pfet_05v0 ad=0.2132p pd=1.34u as=0.3608p ps=2.52u w=0.82u l=0.5u
.ends

.subckt Register_unitcell$3 VDDd out q en default d phi2 phi1 VSSd
Xgf180mcu_fd_sc_mcu9t5v0__or2_1$4_0 gf180mcu_fd_sc_mcu9t5v0__or2_1$4_0/A1 gf180mcu_fd_sc_mcu9t5v0__or2_1$4_0/A2
+ VDDd VSSd out VDDd VSSd gf180mcu_fd_sc_mcu9t5v0__or2_1$4
Xgf180mcu_fd_sc_mcu9t5v0__inv_1$4_0 en VDDd VSSd gf180mcu_fd_sc_mcu9t5v0__inv_1$4_0/ZN
+ VDDd VSSd gf180mcu_fd_sc_mcu9t5v0__inv_1$4
XDFF_2phase_1$4_0 VDDd phi2 phi1 d q VSSd DFF_2phase_1$4
Xgf180mcu_fd_sc_mcu9t5v0__and2_1$4_0 gf180mcu_fd_sc_mcu9t5v0__inv_1$4_0/ZN default
+ VDDd VSSd gf180mcu_fd_sc_mcu9t5v0__or2_1$4_0/A1 VDDd VSSd gf180mcu_fd_sc_mcu9t5v0__and2_1$4
Xgf180mcu_fd_sc_mcu9t5v0__and2_1$4_1 q en VDDd VSSd gf180mcu_fd_sc_mcu9t5v0__or2_1$4_0/A2
+ VDDd VSSd gf180mcu_fd_sc_mcu9t5v0__and2_1$4
.ends

.subckt SRegister_10$2 out[1] out[2] out[3] out[5] out[8] d default10 default9 default8
+ default7 default6 default5 default4 default3 default2 default1 out[9] out[6] out[4]
+ out[10] en out[7] q phi2 VDDd VSSd phi1
XRegister_unitcell$3_0 VDDd out[2] Register_unitcell$3_7/d en default2 Register_unitcell$3_6/q
+ phi2 phi1 VSSd Register_unitcell$3
XRegister_unitcell$3_1 VDDd out[6] Register_unitcell$3_2/d en default6 Register_unitcell$3_9/q
+ phi2 phi1 VSSd Register_unitcell$3
XRegister_unitcell$3_2 VDDd out[7] Register_unitcell$3_3/d en default7 Register_unitcell$3_2/d
+ phi2 phi1 VSSd Register_unitcell$3
XRegister_unitcell$3_3 VDDd out[8] Register_unitcell$3_4/d en default8 Register_unitcell$3_3/d
+ phi2 phi1 VSSd Register_unitcell$3
XRegister_unitcell$3_4 VDDd out[9] Register_unitcell$3_5/d en default9 Register_unitcell$3_4/d
+ phi2 phi1 VSSd Register_unitcell$3
XRegister_unitcell$3_5 VDDd out[10] q en default10 Register_unitcell$3_5/d phi2 phi1
+ VSSd Register_unitcell$3
XRegister_unitcell$3_6 VDDd out[1] Register_unitcell$3_6/q en default1 d phi2 phi1
+ VSSd Register_unitcell$3
XRegister_unitcell$3_7 VDDd out[3] Register_unitcell$3_8/d en default3 Register_unitcell$3_7/d
+ phi2 phi1 VSSd Register_unitcell$3
XRegister_unitcell$3_9 VDDd out[5] Register_unitcell$3_9/q en default5 Register_unitcell$3_9/d
+ phi2 phi1 VSSd Register_unitcell$3
XRegister_unitcell$3_8 VDDd out[4] Register_unitcell$3_9/d en default4 Register_unitcell$3_8/d
+ phi2 phi1 VSSd Register_unitcell$3
.ends

.subckt scan_chain$1 VDDd ENd DATAd CLKd out[1] out[2] out[3] out[4] out[5] out[6]
+ out[7] out[8] out[9] out[10] out[20] out[19] out[18] out[17] out[16] out[15] out[14]
+ out[13] out[12] out[11] out[21] out[22] out[23] out[24] out[25] out[26] out[27]
+ out[28] out[29] out[30] out[40] out[39] out[38] out[37] out[36] out[35] out[34]
+ out[33] out[32] out[31] out[41] out[42] out[43] out[44] out[45] out[46] out[47]
+ out[48] out[49] out[50] VSSd
Xasc_hysteresis_buffer$9_0 VSSd CLKd VDDd SCHMITT$4_0/IN asc_hysteresis_buffer$9
Xasc_hysteresis_buffer$9_1 VSSd ENd VDDd SRegister_10$2_4/en asc_hysteresis_buffer$9
Xasc_hysteresis_buffer$9_2 VSSd DATAd VDDd SRegister_10$2_4/d asc_hysteresis_buffer$9
XSCHMITT$4_0 VDDd VSSd SCHMITT$4_0/IN SCHMITT$4_0/OUT SCHMITT$4
Xqw_NOLclk$2_0 SCHMITT$4_0/OUT VDDd VSSd qw_NOLclk$2_0/PHI_1 qw_NOLclk$2_0/PHI_2 qw_NOLclk$2
XSRegister_10$2_0 out[31] out[32] out[33] out[35] out[38] SRegister_10$2_3/q VSSd
+ VSSd VDDd VSSd VSSd VDDd VDDd VSSd VSSd VSSd out[39] out[36] out[34] out[40] SRegister_10$2_4/en
+ out[37] SRegister_10$2_2/d qw_NOLclk$2_0/PHI_2 VDDd VSSd qw_NOLclk$2_0/PHI_1 SRegister_10$2
XSRegister_10$2_2 out[41] out[42] out[43] out[45] out[48] SRegister_10$2_2/d VSSd
+ VSSd VSSd VSSd VDDd VSSd VSSd VDDd VDDd VSSd out[49] out[46] out[44] out[50] SRegister_10$2_4/en
+ out[47] SRegister_10$2_2/q qw_NOLclk$2_0/PHI_2 VDDd VSSd qw_NOLclk$2_0/PHI_1 SRegister_10$2
XSRegister_10$2_1 out[11] out[12] out[13] out[15] out[18] SRegister_10$2_4/q VSSd
+ VSSd VSSd VSSd VSSd VSSd VSSd VSSd VSSd VSSd out[19] out[16] out[14] out[20] SRegister_10$2_4/en
+ out[17] SRegister_10$2_3/d qw_NOLclk$2_0/PHI_2 VDDd VSSd qw_NOLclk$2_0/PHI_1 SRegister_10$2
XSRegister_10$2_3 out[21] out[22] out[23] out[25] out[28] SRegister_10$2_3/d VSSd
+ VSSd VSSd VSSd VSSd VSSd VSSd VSSd VSSd VSSd out[29] out[26] out[24] out[30] SRegister_10$2_4/en
+ out[27] SRegister_10$2_3/q qw_NOLclk$2_0/PHI_2 VDDd VSSd qw_NOLclk$2_0/PHI_1 SRegister_10$2
XSRegister_10$2_4 out[1] out[2] out[3] out[5] out[8] SRegister_10$2_4/d VSSd VSSd
+ VSSd VSSd VDDd VSSd VSSd VSSd VSSd VSSd out[9] out[6] out[4] out[10] SRegister_10$2_4/en
+ out[7] SRegister_10$2_4/q qw_NOLclk$2_0/PHI_2 VDDd VSSd qw_NOLclk$2_0/PHI_1 SRegister_10$2
.ends

.subckt pfet$457 a_254_0# a_348_560# w_n180_n88# a_414_0# a_n92_0# a_94_0# a_574_0#
+ a_508_560# a_188_560# a_28_560#
X0 a_254_0# a_188_560# a_94_0# w_n180_n88# pfet_03v3 ad=0.65p pd=3.02u as=0.65p ps=3.02u w=2.5u l=0.28u
X1 a_574_0# a_508_560# a_414_0# w_n180_n88# pfet_03v3 ad=1.625p pd=6.3u as=0.65p ps=3.02u w=2.5u l=0.28u
X2 a_94_0# a_28_560# a_n92_0# w_n180_n88# pfet_03v3 ad=0.65p pd=3.02u as=1.625p ps=6.3u w=2.5u l=0.28u
X3 a_414_0# a_348_560# a_254_0# w_n180_n88# pfet_03v3 ad=0.65p pd=3.02u as=0.65p ps=3.02u w=2.5u l=0.28u
.ends

.subckt pfet$455 a_28_n136# a_254_0# a_188_n136# w_n180_n88# a_348_n136# a_414_0#
+ a_n92_0# a_94_0# a_574_0# a_508_n136#
X0 a_254_0# a_188_n136# a_94_0# w_n180_n88# pfet_03v3 ad=0.65p pd=3.02u as=0.65p ps=3.02u w=2.5u l=0.28u
X1 a_574_0# a_508_n136# a_414_0# w_n180_n88# pfet_03v3 ad=1.625p pd=6.3u as=0.65p ps=3.02u w=2.5u l=0.28u
X2 a_94_0# a_28_n136# a_n92_0# w_n180_n88# pfet_03v3 ad=0.65p pd=3.02u as=1.625p ps=6.3u w=2.5u l=0.28u
X3 a_414_0# a_348_n136# a_254_0# w_n180_n88# pfet_03v3 ad=0.65p pd=3.02u as=0.65p ps=3.02u w=2.5u l=0.28u
.ends

.subckt nfet$484 a_254_0# a_350_460# a_414_0# a_n84_0# a_94_0# a_510_460# a_190_460#
+ a_574_0# a_30_460# VSUBS
X0 a_254_0# a_190_460# a_94_0# VSUBS nfet_03v3 ad=0.52p pd=2.52u as=0.52p ps=2.52u w=2u l=0.28u
X1 a_574_0# a_510_460# a_414_0# VSUBS nfet_03v3 ad=1.22p pd=5.22u as=0.52p ps=2.52u w=2u l=0.28u
X2 a_94_0# a_30_460# a_n84_0# VSUBS nfet_03v3 ad=0.52p pd=2.52u as=1.22p ps=5.22u w=2u l=0.28u
X3 a_414_0# a_350_460# a_254_0# VSUBS nfet_03v3 ad=0.52p pd=2.52u as=0.52p ps=2.52u w=2u l=0.28u
.ends

.subckt nfet$482 a_254_0# a_n84_0# a_94_0# a_190_460# a_30_460# VSUBS
X0 a_254_0# a_190_460# a_94_0# VSUBS nfet_03v3 ad=1.22p pd=5.22u as=0.52p ps=2.52u w=2u l=0.28u
X1 a_94_0# a_30_460# a_n84_0# VSUBS nfet_03v3 ad=0.52p pd=2.52u as=1.22p ps=5.22u w=2u l=0.28u
.ends

.subckt pfet$456 a_28_n136# a_254_0# a_188_n136# w_n180_n88# a_n92_0# a_94_0#
X0 a_254_0# a_188_n136# a_94_0# w_n180_n88# pfet_03v3 ad=1.625p pd=6.3u as=0.65p ps=3.02u w=2.5u l=0.28u
X1 a_94_0# a_28_n136# a_n92_0# w_n180_n88# pfet_03v3 ad=0.65p pd=3.02u as=1.625p ps=6.3u w=2.5u l=0.28u
.ends

.subckt nfet$485 a_n84_0# a_94_0# a_30_460# VSUBS
X0 a_94_0# a_30_460# a_n84_0# VSUBS nfet_03v3 ad=1.22p pd=5.22u as=1.22p ps=5.22u w=2u l=0.28u
.ends

.subckt nfet$483 a_1054_0# a_734_0# a_254_0# a_350_460# a_830_460# a_894_0# a_990_460#
+ a_1214_0# a_414_0# a_n84_0# a_94_0# a_510_460# a_190_460# a_574_0# a_670_460# a_1150_460#
+ a_30_460# VSUBS
X0 a_734_0# a_670_460# a_574_0# VSUBS nfet_03v3 ad=0.52p pd=2.52u as=0.52p ps=2.52u w=2u l=0.28u
X1 a_254_0# a_190_460# a_94_0# VSUBS nfet_03v3 ad=0.52p pd=2.52u as=0.52p ps=2.52u w=2u l=0.28u
X2 a_574_0# a_510_460# a_414_0# VSUBS nfet_03v3 ad=0.52p pd=2.52u as=0.52p ps=2.52u w=2u l=0.28u
X3 a_1054_0# a_990_460# a_894_0# VSUBS nfet_03v3 ad=0.52p pd=2.52u as=0.52p ps=2.52u w=2u l=0.28u
X4 a_894_0# a_830_460# a_734_0# VSUBS nfet_03v3 ad=0.52p pd=2.52u as=0.52p ps=2.52u w=2u l=0.28u
X5 a_94_0# a_30_460# a_n84_0# VSUBS nfet_03v3 ad=0.52p pd=2.52u as=1.22p ps=5.22u w=2u l=0.28u
X6 a_414_0# a_350_460# a_254_0# VSUBS nfet_03v3 ad=0.52p pd=2.52u as=0.52p ps=2.52u w=2u l=0.28u
X7 a_1214_0# a_1150_460# a_1054_0# VSUBS nfet_03v3 ad=1.22p pd=5.22u as=0.52p ps=2.52u w=2u l=0.28u
.ends

.subckt Ncomparator$2 vss vdd out inn inp iref
Xpfet$457_1 vdd m1_570_1653# vdd out vdd out vdd m1_570_1653# m1_570_1653# m1_570_1653#
+ pfet$457
Xpfet$457_2 vdd m1_570_1653# vdd out vdd out vdd m1_570_1653# m1_570_1653# m1_570_1653#
+ pfet$457
Xpfet$455_0 m1_1242_549# vdd m1_1242_549# vdd m1_1242_549# m1_570_1653# vdd m1_570_1653#
+ vdd m1_1242_549# pfet$455
Xpfet$457_3 vdd m1_570_1653# vdd out vdd out vdd m1_570_1653# m1_570_1653# m1_570_1653#
+ pfet$457
Xpfet$455_1 m1_1242_549# vdd m1_1242_549# vdd m1_1242_549# m1_1242_549# vdd m1_1242_549#
+ vdd m1_1242_549# pfet$455
Xpfet$455_3 m1_1242_549# vdd m1_1242_549# vdd m1_1242_549# m1_1242_549# vdd m1_1242_549#
+ vdd m1_1242_549# pfet$455
Xpfet$455_2 m1_1242_549# vdd m1_1242_549# vdd m1_1242_549# m1_570_1653# vdd m1_570_1653#
+ vdd m1_1242_549# pfet$455
Xnfet$484_0 vss iref m1_506_n191# vss m1_506_n191# iref iref vss iref vss nfet$484
Xnfet$484_1 vss iref iref vss iref iref iref vss iref vss nfet$484
Xnfet$484_2 m1_506_n191# m1_506_n191# m1_506_n191# m1_506_n191# m1_506_n191# m1_506_n191#
+ m1_506_n191# m1_506_n191# m1_506_n191# vss nfet$484
Xnfet$484_3 m1_506_n191# m1_506_n191# m1_506_n191# m1_506_n191# m1_506_n191# m1_506_n191#
+ m1_506_n191# m1_506_n191# m1_506_n191# vss nfet$484
Xnfet$482_0 m1_506_n191# m1_506_n191# m1_570_1653# inp inp vss nfet$482
Xnfet$484_5 vss iref m1_506_n191# vss m1_506_n191# iref iref vss iref vss nfet$484
Xnfet$484_4 vss iref iref vss iref iref iref vss iref vss nfet$484
Xnfet$482_1 m1_506_n191# m1_506_n191# m1_1242_549# inn inn vss nfet$482
Xnfet$482_3 m1_506_n191# m1_506_n191# m1_1242_549# inn inn vss nfet$482
Xnfet$482_2 m1_506_n191# m1_506_n191# m1_570_1653# inp inp vss nfet$482
Xpfet$456_0 vdd vdd vdd vdd vdd vdd pfet$456
Xpfet$456_1 vdd vdd vdd vdd vdd vdd pfet$456
Xpfet$456_2 vdd vdd vdd vdd vdd vdd pfet$456
Xpfet$456_3 vdd vdd vdd vdd vdd vdd pfet$456
Xnfet$485_1 vss vss vss vss nfet$485
Xnfet$485_0 vss vss vss vss nfet$485
Xnfet$483_0 out out vss iref iref vss iref vss out vss out iref iref vss iref iref
+ iref vss nfet$483
Xpfet$457_0 vdd m1_570_1653# vdd out vdd out vdd m1_570_1653# m1_570_1653# m1_570_1653#
+ pfet$457
.ends

.subckt nfet$491 a_30_260# a_n84_0# a_94_0# VSUBS
X0 a_94_0# a_30_260# a_n84_0# VSUBS nfet_03v3 ad=0.61p pd=3.22u as=0.61p ps=3.22u w=1u l=0.28u
.ends

.subckt pfet$459 a_254_0# a_348_560# w_n180_n88# a_414_0# a_n92_0# a_94_0# a_574_0#
+ a_508_560# a_188_560# a_28_560#
X0 a_254_0# a_188_560# a_94_0# w_n180_n88# pfet_03v3 ad=0.65p pd=3.02u as=0.65p ps=3.02u w=2.5u l=0.28u
X1 a_574_0# a_508_560# a_414_0# w_n180_n88# pfet_03v3 ad=1.625p pd=6.3u as=0.65p ps=3.02u w=2.5u l=0.28u
X2 a_94_0# a_28_560# a_n92_0# w_n180_n88# pfet_03v3 ad=0.65p pd=3.02u as=1.625p ps=6.3u w=2.5u l=0.28u
X3 a_414_0# a_348_560# a_254_0# w_n180_n88# pfet_03v3 ad=0.65p pd=3.02u as=0.65p ps=3.02u w=2.5u l=0.28u
.ends
