** sch_path: /foss/designs/libs/top_level/top_level_20250921/top_level_20250921.sch
.include /foss/designs/switch_matrix_gf180mcu_9t5v0-main/gf180mcu_fd_sc_mcu9t5v0.spice
.subckt top_level_20250921 VDDd VSSd data clk en ref i_cp_100u ext_pfd_ref ext_pfd_div ext_pfd_up ext_pfd_down lock up down
+ filter_out ext_vco_in div_in div_out out filter_in ext_vco_out div_def
*.PININFO VDDd:B VSSd:B ref:B i_cp_100u:B filter_in:B filter_out:B ext_pfd_ref:B ext_pfd_up:B ext_pfd_down:B ext_pfd_div:B up:B
*+ down:B out:B lock:B ext_vco_out:B ext_vco_in:B div_out:B div_in:B data:B clk:B en:B div_def:B
xtop_sc VDDd VSSd data_esd clk_esd en_esd ref_esd i_100u_esd ext_pfd_ref_res ext_pfd_div_res ext_pfd_up_res ext_pfd_down_res
+ lock_res up_res down_res filter_out_res ext_vco_in_res div_in_res div_out_res out_res filter_in_res ext_vco_out_res div_def_esd
+ top_level_20250919_sc
XR1 VSSd en_esd VSSd ppolyf_u r_width=1e-6 r_length=27e-6 m=1
XIO1 VDDd data_esd data VSSd io_secondary_3p3
XIO2 VDDd clk_esd clk VSSd io_secondary_3p3
XIO3 VDDd en_esd en VSSd io_secondary_3p3
XIO4 VDDd ref_esd ref VSSd io_secondary_3p3
XIO5 VDDd i_100u_esd i_cp_100u VSSd io_secondary_3p3
XIO6 VDDd div_def_esd div_def VSSd io_secondary_3p3
xdecap VDDd VSSd DECAP_LARGE
XR2 filter_in_res filter_in VSSd ppolyf_u r_width=40e-6 r_length=5.5e-6 m=1
XR3 filter_out_res filter_out VSSd ppolyf_u r_width=40e-6 r_length=5.5e-6 m=1
XR4 div_out_res div_out VSSd ppolyf_u r_width=40e-6 r_length=5.5e-6 m=1
XR5 div_in_res div_in VSSd ppolyf_u r_width=40e-6 r_length=5.5e-6 m=1
XR6 ext_vco_out_res ext_vco_out VSSd ppolyf_u r_width=40e-6 r_length=5.5e-6 m=1
XR7 ext_vco_in_res ext_vco_in VSSd ppolyf_u r_width=40e-6 r_length=5.5e-6 m=1
XR8 out_res out VSSd ppolyf_u r_width=40e-6 r_length=5.5e-6 m=1
XR9 down_res down VSSd ppolyf_u r_width=40e-6 r_length=5.5e-6 m=1
XR10 up_res up VSSd ppolyf_u r_width=40e-6 r_length=5.5e-6 m=1
XR11 lock_res lock VSSd ppolyf_u r_width=40e-6 r_length=5.5e-6 m=1
XR12 ext_pfd_down_res ext_pfd_down VSSd ppolyf_u r_width=40e-6 r_length=5.5e-6 m=1
XR13 ext_pfd_up_res ext_pfd_up VSSd ppolyf_u r_width=40e-6 r_length=5.5e-6 m=1
XR14 ext_pfd_div_res ext_pfd_div VSSd ppolyf_u r_width=40e-6 r_length=5.5e-6 m=1
XR15 ext_pfd_ref_res ext_pfd_ref VSSd ppolyf_u r_width=40e-6 r_length=5.5e-6 m=1
.ends

* expanding   symbol:  libs/top_level/top_level_20250919/top_level_20250919_sc/top_level_20250919_sc.sym # of pins=22
** sym_path: /foss/designs/libs/top_level/top_level_20250919/top_level_20250919_sc/top_level_20250919_sc.sym
** sch_path: /foss/designs/libs/top_level/top_level_20250919/top_level_20250919_sc/top_level_20250919_sc.sch
.subckt top_level_20250919_sc VDDd VSSd data clk en ref i_cp_100u ext_pfd_ref ext_pfd_div ext_pfd_up ext_pfd_down lock up down
+ filter_out ext_vco_in div_in div_out out filter_in ext_vco_out div_def
*.PININFO VDDd:B VSSd:B ref:B i_cp_100u:B filter_in:B filter_out:B ext_pfd_ref:B ext_pfd_up:B ext_pfd_down:B ext_pfd_div:B up:B
*+ down:B out:B lock:B ext_vco_out:B ext_vco_in:B div_out:B div_in:B div_def:B data:B clk:B en:B
xsc VDDd VSSd clk en data out[1] out[2] out[3] out[4] out[5] out[6] out[7] out[8] out[9] out[10] out[11] out[12] out[13] out[14]
+ out[15] out[16] out[17] out[18] out[19] out[20] out[21] out[22] out[23] out[24] out[25] out[26] out[27] out[28] out[29] out[30] out[31]
+ out[32] out[33] out[34] out[35] out[36] out[37] out[38] out[39] out[40] out[41] out[42] out[43] out[44] out[45] out[46] out[47] out[48]
+ out[49] out[50] scan_chain
xtop_nosc VDDd VSSd out[2] out[1] out[32] out[31] out[33] out[6] out[5] out[4] out[3] out[34] out[35] out[36] out[37] out[38]
+ out[39] out[40] out[41] out[42] out[43] out[44] out[45] out[46] out[47] out[48] out[49] out[50] ref i_cp_100u ext_pfd_ref ext_pfd_div
+ ext_pfd_up ext_pfd_down lock up down filter_out ext_vco_in div_in div_out out filter_in ext_vco_out div_def out[18] out[19] out[20] out[21]
+ out[22] out[23] out[24] out[25] out[26] out[7] out[8] out[9] out[10] out[11] out[12] out[13] out[14] out[15] out[16] out[17] out[27]
+ out[28] out[29] out[30] top_level_20250919_nosc
.ends


* expanding   symbol:  libs/secondary_esd/io_secondary_3p3.sym # of pins=4
** sym_path: /foss/designs/libs/secondary_esd/io_secondary_3p3.sym
** sch_path: /foss/designs/libs/secondary_esd/io_secondary_3p3.sch
.subckt io_secondary_3p3 VDD to_gate ASIG3V3 VSS


*.PININFO VSS:B VDD:B to_gate:B ASIG3V3:B
XR1 to_gate ASIG3V3 VSS ppolyf_u r_width=40e-6 r_length=5.5e-6 m=1
D2 VSS to_gate diode_nd2ps_03v3 area='10u * 10u ' pj='2*10u + 2*10u ' m=4
D1 to_gate VDD diode_pd2nw_03v3 area='10u * 10u ' pj='2*10u + 2*10u ' m=4
.ends


* expanding   symbol:  libs/qw_core_analog/DECAP_LARGE/DECAP_LARGE.sym # of pins=2
** sym_path: /foss/designs/libs/qw_core_analog/DECAP_LARGE/DECAP_LARGE.sym
** sch_path: /foss/designs/libs/qw_core_analog/DECAP_LARGE/DECAP_LARGE.sch
.subckt DECAP_LARGE vdd vss
*.PININFO vdd:B vss:B
x[1] vdd vss DECAP_SC
x[2] vdd vss DECAP_SC
x[3] vdd vss DECAP_SC
x[4] vdd vss DECAP_SC
x[5] vdd vss DECAP_SC
x[6] vdd vss DECAP_SC
x[7] vdd vss DECAP_SC
x[8] vdd vss DECAP_SC
x[9] vdd vss DECAP_SC
x[10] vdd vss DECAP_SC
x[11] vdd vss DECAP_SC
x[12] vdd vss DECAP_SC
x[13] vdd vss DECAP_SC
x[14] vdd vss DECAP_SC
x[15] vdd vss DECAP_SC
x[16] vdd vss DECAP_SC
x[17] vdd vss DECAP_SC
x[18] vdd vss DECAP_SC
x[19] vdd vss DECAP_SC
x[20] vdd vss DECAP_SC
x[21] vdd vss DECAP_SC
x[22] vdd vss DECAP_SC
x[23] vdd vss DECAP_SC
x[24] vdd vss DECAP_SC
x[25] vdd vss DECAP_SC
x[26] vdd vss DECAP_SC
x[27] vdd vss DECAP_SC
x[28] vdd vss DECAP_SC
x[29] vdd vss DECAP_SC
x[30] vdd vss DECAP_SC
x[31] vdd vss DECAP_SC
x[32] vdd vss DECAP_SC
x[33] vdd vss DECAP_SC
x[34] vdd vss DECAP_SC
x[35] vdd vss DECAP_SC
x[36] vdd vss DECAP_SC
x[37] vdd vss DECAP_SC
x[38] vdd vss DECAP_SC
x[39] vdd vss DECAP_SC
x[40] vdd vss DECAP_SC
x[41] vdd vss DECAP_SC
x[42] vdd vss DECAP_SC
x[43] vdd vss DECAP_SC
x[44] vdd vss DECAP_SC
x[45] vdd vss DECAP_SC
x[46] vdd vss DECAP_SC
x[47] vdd vss DECAP_SC
x[48] vdd vss DECAP_SC
x[49] vdd vss DECAP_SC
x[50] vdd vss DECAP_SC
x[51] vdd vss DECAP_SC
x[52] vdd vss DECAP_SC
x[53] vdd vss DECAP_SC
x[54] vdd vss DECAP_SC
x[55] vdd vss DECAP_SC
x[56] vdd vss DECAP_SC
x[57] vdd vss DECAP_SC
x[58] vdd vss DECAP_SC
x[59] vdd vss DECAP_SC
x[60] vdd vss DECAP_SC
x[61] vdd vss DECAP_SC
x[62] vdd vss DECAP_SC
x[63] vdd vss DECAP_SC
x[64] vdd vss DECAP_SC
x[65] vdd vss DECAP_SC
x[66] vdd vss DECAP_SC
x[67] vdd vss DECAP_SC
x[68] vdd vss DECAP_SC
x[69] vdd vss DECAP_SC
x[70] vdd vss DECAP_SC
x[71] vdd vss DECAP_SC
x[72] vdd vss DECAP_SC
x[73] vdd vss DECAP_SC
x[74] vdd vss DECAP_SC
x[75] vdd vss DECAP_SC
x[76] vdd vss DECAP_SC
x[77] vdd vss DECAP_SC
x[78] vdd vss DECAP_SC
x[79] vdd vss DECAP_SC
x[80] vdd vss DECAP_SC
x[81] vdd vss DECAP_SC
x[82] vdd vss DECAP_SC
x[83] vdd vss DECAP_SC
x[84] vdd vss DECAP_SC
x[85] vdd vss DECAP_SC
x[86] vdd vss DECAP_SC
x[87] vdd vss DECAP_SC
x[88] vdd vss DECAP_SC
x[89] vdd vss DECAP_SC
x[90] vdd vss DECAP_SC
x[91] vdd vss DECAP_SC
x[92] vdd vss DECAP_SC
x[93] vdd vss DECAP_SC
x[94] vdd vss DECAP_SC
x[95] vdd vss DECAP_SC
x[96] vdd vss DECAP_SC
x[97] vdd vss DECAP_SC
x[98] vdd vss DECAP_SC
x[99] vdd vss DECAP_SC
x[100] vdd vss DECAP_SC
x[101] vdd vss DECAP_SC
x[102] vdd vss DECAP_SC
x[103] vdd vss DECAP_SC
x[104] vdd vss DECAP_SC
x[105] vdd vss DECAP_SC
x[106] vdd vss DECAP_SC
x[107] vdd vss DECAP_SC
x[108] vdd vss DECAP_SC
x[109] vdd vss DECAP_SC
x[110] vdd vss DECAP_SC
x[111] vdd vss DECAP_SC
x[112] vdd vss DECAP_SC
x[113] vdd vss DECAP_SC
x[114] vdd vss DECAP_SC
x[115] vdd vss DECAP_SC
x[116] vdd vss DECAP_SC
x[117] vdd vss DECAP_SC
x[118] vdd vss DECAP_SC
x[119] vdd vss DECAP_SC
x[120] vdd vss DECAP_SC
x[121] vdd vss DECAP_SC
x[122] vdd vss DECAP_SC
x[123] vdd vss DECAP_SC
x[124] vdd vss DECAP_SC
x[125] vdd vss DECAP_SC
x[126] vdd vss DECAP_SC
.ends


* expanding   symbol:  libs/core_analog/scan_chain/scan_chain.sym # of pins=6
** sym_path: /foss/designs/libs/core_analog/scan_chain/scan_chain.sym
** sch_path: /foss/designs/libs/core_analog/scan_chain/scan_chain.sch
.subckt scan_chain VDDd VSSd CLKd ENd DATAd out[1] out[2] out[3] out[4] out[5] out[6] out[7] out[8] out[9] out[10] out[11] out[12]
+ out[13] out[14] out[15] out[16] out[17] out[18] out[19] out[20] out[21] out[22] out[23] out[24] out[25] out[26] out[27] out[28] out[29]
+ out[30] out[31] out[32] out[33] out[34] out[35] out[36] out[37] out[38] out[39] out[40] out[41] out[42] out[43] out[44] out[45] out[46]
+ out[47] out[48] out[49] out[50]
*.PININFO VDDd:B VSSd:B CLKd:B DATAd:B ENd:B out[1:50]:B
x1 VDDd VSSd phi1 phi2 en VSSd data q0 out[1] out[2] out[3] out[4] out[5] out[6] out[7] out[8] out[9] out[10] VSSd VSSd VSSd VSSd
+ VDDd VSSd VSSd VSSd VSSd SRegister_10
x3 VDDd VSSd phi1 phi2 en VSSd q0 q1 out[11] out[12] out[13] out[14] out[15] out[16] out[17] out[18] out[19] out[20] VSSd VSSd
+ VSSd VSSd VSSd VSSd VSSd VSSd VSSd SRegister_10
x4 VDDd VSSd phi1 phi2 en VSSd q1 q2 out[21] out[22] out[23] out[24] out[25] out[26] out[27] out[28] out[29] out[30] VSSd VSSd
+ VSSd VSSd VSSd VSSd VSSd VSSd VSSd SRegister_10
* noconn q2
x6 VDDd VSSd phi1 phi2 en VSSd q2 q3 out[31] out[32] out[33] out[34] out[35] out[36] out[37] out[38] out[39] out[40] VSSd VSSd
+ VDDd VDDd VSSd VSSd VDDd VSSd VSSd SRegister_10
* noconn q3
x7 VDDd VSSd phi1 phi2 en VSSd q3 q4 out[41] out[42] out[43] out[44] out[45] out[46] out[47] out[48] out[49] out[50] VDDd VDDd
+ VSSd VSSd VDDd VSSd VSSd VSSd VSSd SRegister_10
* noconn q4
x8 CLKd VSSd clk VDDd asc_hysteresis_buffer
x9 DATAd VSSd data VDDd asc_hysteresis_buffer
x10 ENd VSSd en VDDd asc_hysteresis_buffer
x5 clk net1 VDDd VSSd SCHMITT
x2 phi2 net1 VDDd phi1 VSSd qw_NOLclk
.ends


* expanding   symbol:  libs/top_level/top_level_20250919/top_level_20250919_nosc/top_level_20250919_nosc.sym # of pins=69
** sym_path: /foss/designs/libs/top_level/top_level_20250919/top_level_20250919_nosc/top_level_20250919_nosc.sym
** sch_path: /foss/designs/libs/top_level/top_level_20250919/top_level_20250919_nosc/top_level_20250919_nosc.sch
.subckt top_level_20250919_nosc vdd vss mx_pfd_s0 mx_pfd_s1 mx_vco_s0 mx_vco_s1 div_swc_s8 cp_s1 cp_s2 cp_s3 cp_s4 div_swc_s7
+ div_swc_s6 div_swc_s5 div_swc_s4 div_swc_s3 div_swc_s2 div_swc_s1 div_swc_s0 div_prc_s8 div_prc_s7 div_prc_s6 div_prc_s5 div_prc_s4
+ div_prc_s3 div_prc_s2 div_prc_s1 div_prc_s0 ref i_cp_100u ext_pfd_ref ext_pfd_div ext_pfd_up ext_pfd_down lock up down filter_out ext_vco_in
+ div_in div_out out filter_in ext_vco_out div_def div_rpc_s8 div_rpc_s7 div_rpc_s6 div_rpc_s5 div_rpc_s4 div_rpc_s3 div_rpc_s2 div_rpc_s1
+ div_rpc_s0 mx_ref_s1 mx_ref_s0 div_rsc_s8 div_rsc_s7 div_rsc_s6 div_rsc_s5 div_rsc_s4 div_rsc_s3 div_rsc_s2 div_rsc_s1 div_rsc_s0 rex_s1
+ rex_s2 rex_s3 rex_s4
*.PININFO vdd:B vss:B up:B down:B ref:B out:B mx_pfd_s0:B mx_pfd_s1:B ext_pfd_ref:B lock:B ext_pfd_up:B ext_pfd_down:B
*+ ext_pfd_div:B cp_s1:B cp_s2:B cp_s3:B cp_s4:B ext_vco_out:B mx_vco_s0:B mx_vco_s1:B filter_in:B filter_out:B ext_vco_in:B div_swc_s0:B
*+ div_swc_s1:B div_swc_s2:B div_swc_s3:B div_swc_s4:B div_swc_s5:B div_swc_s6:B div_swc_s7:B div_swc_s8:B div_prc_s0:B div_prc_s1:B div_prc_s2:B
*+ div_prc_s3:B div_prc_s4:B div_prc_s5:B div_prc_s6:B div_prc_s7:B div_prc_s8:B div_out:B div_in:B div_def:B mx_ref_s0:B mx_ref_s1:B
*+ div_rsc_s0:B div_rsc_s1:B div_rsc_s2:B div_rsc_s3:B div_rsc_s4:B div_rsc_s5:B div_rsc_s6:B div_rsc_s7:B div_rsc_s8:B div_rpc_s0:B div_rpc_s1:B
*+ div_rpc_s2:B div_rpc_s3:B div_rpc_s4:B div_rpc_s5:B div_rpc_s6:B div_rpc_s7:B div_rpc_s8:B i_cp_100u:B rex_s1:B rex_s2:B rex_s3:B rex_s4:B
xmux_ref ext_pfd_ref vdd vss mx_pfd_s0 mx_pfd_s1 dff_pfd_ps_ref ref_buff dff_pfd_ref xp_3_1_MUX
xmux_div ext_pfd_div vdd vss mx_pfd_s0 mx_pfd_s1 dff_pfd_ps_div int_div_out dff_pfd_div xp_3_1_MUX
xmux_up ext_pfd_up vdd vss mx_pfd_s0 mx_pfd_s1 dff_pfd_ps_up up_pre dff_pfd_up xp_3_1_MUX
xmux_down ext_pfd_down vdd vss mx_pfd_s0 mx_pfd_s1 dff_pfd_ps_down down_pre dff_pfd_down xp_3_1_MUX
xmux_vco_out ext_vco_out vdd vss mx_vco_s0 mx_vco_s1 rexvco_out vco_out csrvco_out xp_3_1_MUX
xmux_vco_in ext_vco_in vdd vss mx_vco_s0 mx_vco_s1 rexvco_in filter_out csrvco_in xp_3_1_MUX
* noconn rexvco_in
* noconn rexvco_out
xbuf_out vco_out vss out vdd asc_drive_buffer
xdrive_down down_pre vss down_post vdd asc_drive_buffer
xbuf_down down_pre vss down vdd asc_drive_buffer
xbuf_up up_pre vss up vdd asc_drive_buffer
xdrive_up up_pre vss up_post vdd asc_drive_buffer_up
xcp vdd filter_in vss cp_s4 cp_s3 cp_s2 cp_s1 down_post up_post i_cp xp_programmable_basic_pump
xdiv int_div_out div_swc_s8 div_swc_s7 div_swc_s6 div_swc_s5 div_swc_s4 div_swc_s3 div_swc_s2 div_swc_s1 div_swc_s0 vss int_div_in
+ vdd int_div_def div_prc_s8 div_prc_s7 div_prc_s6 div_prc_s5 div_prc_s4 div_prc_s3 div_prc_s2 div_prc_s1 div_prc_s0
+ asc_dual_psd_def_20250809
xbuf_divo int_div_out vss div_out vdd asc_drive_buffer
xbuf_divi int_div_in vss div_in vdd asc_drive_buffer
xvco_csr csrvco_in vdd vss csrvco_out CSRVCO_20250823
xlock vdd lock_pre vss int_div_out ref_buff asc_lock_detector_20250826
xbuf_lock lock_pre vss lock vdd asc_drive_buffer
xbuf_ref ref_o vss ref_buff vdd asc_hysteresis_buffer
xpfd vdd vss dff_pfd_down dff_pfd_up dff_pfd_ref dff_pfd_div asc_PFD_DFF_20250831
xpfd_ps vdd vss dff_pfd_ps_up dff_pfd_ps_down dff_pfd_ps_ref dff_pfd_ps_div asc_PFD_DFF_20250831
xmux_refi net1 vdd vss mx_ref_s0 mx_ref_s1 ref_div_i net3 ref_by xp_3_1_MUX
xmux_refo net2 vdd vss mx_ref_s0 mx_ref_s1 ref_div_o ref_o ref_by xp_3_1_MUX
xrefdiv ref_div_o div_rsc_s8 div_rsc_s7 div_rsc_s6 div_rsc_s5 div_rsc_s4 div_rsc_s3 div_rsc_s2 div_rsc_s1 div_rsc_s0 vss ref_div_i
+ vdd vss div_rpc_s8 div_rpc_s7 div_rpc_s6 div_rpc_s5 div_rpc_s4 div_rpc_s3 div_rpc_s2 div_rpc_s1 div_rpc_s0 asc_dual_psd_def_20250809
* noconn #net1
* noconn #net2
xbuf_refi ref vss net3 vdd asc_hysteresis_buffer
xbuf_div vco_out vss int_div_in vdd asc_drive_buffer
xbias vdd 200p2 200p1 i_cp_100u i_cp 200n vss BIAS
* noconn 200p2
* noconn 200p1
* noconn 200n
xbuf_dd div_def vss int_div_def vdd asc_hysteresis_buffer
xvco_rex vdd vss 200p1 200p2 200n rex_s1 rex_s2 rex_s3 rex_s4 rexvco_out rexvco_outb rexvco_in VCOfinal
* noconn rexvco_outb
.ends


* expanding   symbol:  libs/qw_core_analog/DECAP_SC/DECAP_SC.sym # of pins=2
** sym_path: /foss/designs/libs/qw_core_analog/DECAP_SC/DECAP_SC.sym
** sch_path: /foss/designs/libs/qw_core_analog/DECAP_SC/DECAP_SC.sch
.subckt DECAP_SC vdd vss
*.PININFO vdd:B vss:B
XC1 vdd vss cap_nmos_03v3 c_width=10e-6 c_length=10e-6 m=1
XC2 vdd vss cap_nmos_03v3 c_width=10e-6 c_length=10e-6 m=1
XC3 vdd vss cap_nmos_03v3 c_width=10e-6 c_length=10e-6 m=1
XC4 vdd vss cap_nmos_03v3 c_width=10e-6 c_length=10e-6 m=1
.ends


* expanding   symbol:  libs/core_analog/SRegister_10/SRegister_10.sym # of pins=18
** sym_path: /foss/designs/libs/core_analog/SRegister_10/SRegister_10.sym
** sch_path: /foss/designs/libs/core_analog/SRegister_10/SRegister_10.sch
.subckt SRegister_10 VDDd VSSd phi1 phi2 en default1 d q out[1] out[2] out[3] out[4] out[5] out[6] out[7] out[8] out[9] out[10]
+ default2 default3 default4 default5 default6 default7 default8 default9 default10
*.PININFO VDDd:B VSSd:B phi1:B phi2:B en:B d:B q:B out[1:10]:B default1:B default2:B default3:B default4:B default5:B default6:B
*+ default7:B default8:B default9:B default10:B
x1 net1 d phi1 phi2 VDDd VSSd out[1] en default1 Register_unitcell
x2 net2 net1 phi1 phi2 VDDd VSSd out[2] en default2 Register_unitcell
x3 net3 net2 phi1 phi2 VDDd VSSd out[3] en default3 Register_unitcell
x4 net4 net3 phi1 phi2 VDDd VSSd out[4] en default4 Register_unitcell
x5 net5 net4 phi1 phi2 VDDd VSSd out[5] en default5 Register_unitcell
x6 net6 net5 phi1 phi2 VDDd VSSd out[6] en default6 Register_unitcell
x7 net7 net6 phi1 phi2 VDDd VSSd out[7] en default7 Register_unitcell
x8 net8 net7 phi1 phi2 VDDd VSSd out[8] en default8 Register_unitcell
x9 net9 net8 phi1 phi2 VDDd VSSd out[9] en default9 Register_unitcell
x10 q net9 phi1 phi2 VDDd VSSd out[10] en default10 Register_unitcell
.ends


* expanding   symbol:  libs/core_analog/asc_hysteresis_buffer/asc_hysteresis_buffer.sym # of pins=4
** sym_path: /foss/designs/libs/core_analog/asc_hysteresis_buffer/asc_hysteresis_buffer.sym
** sch_path: /foss/designs/libs/core_analog/asc_hysteresis_buffer/asc_hysteresis_buffer.sch
.subckt asc_hysteresis_buffer in vss out vdd
*.PININFO in:B out:B vss:B vdd:B
XM1 net1 in vdd vdd pfet_03v3 L=0.5u W=3.0u nf=1 m=1
XM2 net1 in vss vss nfet_03v3 L=0.5u W=1.0u nf=1 m=1
XM3 net2 net1 vdd vdd pfet_03v3 L=0.5u W=12.0u nf=1 m=1
XM4 net2 net1 vss vss nfet_03v3 L=0.5u W=4.0u nf=1 m=1
XM5 net3 net2 vdd vdd pfet_03v3 L=0.5u W=48.0u nf=4 m=1
XM6 net3 net2 vss vss nfet_03v3 L=0.5u W=16.0u nf=4 m=1
XM7 out net3 vdd vdd pfet_03v3 L=0.5u W=96.0u nf=8 m=1
XM8 out net3 vss vss nfet_03v3 L=0.5u W=32.0u nf=8 m=1
x1 net3 vdd net2 vss inv1u05u
.ends


* expanding   symbol:  libs/qw_core_analog/SCHMITT/SCHMITT.sym # of pins=4
** sym_path: /foss/designs/libs/qw_core_analog/SCHMITT/SCHMITT.sym
** sch_path: /foss/designs/libs/qw_core_analog/SCHMITT/SCHMITT.sch
.subckt SCHMITT IN OUT VDD VSS
*.PININFO OUT:B IN:B VDD:B VSS:B
XM1 OUT IN net1 VSS nfet_03v3 L=0.28u W=2u nf=1 m=1
XM2 OUT IN net2 VDD pfet_03v3 L=0.28u W=4u nf=1 m=1
XM3 net2 IN VDD VDD pfet_03v3 L=0.28u W=4u nf=1 m=1
XM4 net1 IN VSS VSS nfet_03v3 L=0.28u W=2u nf=1 m=1
XM5 VSS OUT net2 VDD pfet_03v3 L=0.28u W=2u nf=1 m=1
XM6 VDD OUT net1 VSS nfet_03v3 L=0.28u W=2u nf=1 m=1
.ends


* expanding   symbol:  libs/core_analog/qw_NOLclk/qw_NOLclk.sym # of pins=5
** sym_path: /foss/designs/libs/core_analog/qw_NOLclk/qw_NOLclk.sym
** sch_path: /foss/designs/libs/core_analog/qw_NOLclk/qw_NOLclk.sch
.subckt qw_NOLclk PHI_2 CLK VDDd PHI_1 VSSd
*.PININFO CLK:I PHI_2:O VDDd:B VSSd:B PHI_1:O
* noconn VDDd
* noconn VSSd
x4 VDDd PHI_2 net1 VSSd SmallW_Linv
x7 VDDd PHI_1 net2 VSSd SmallW_Linv
x12 VDDd net3 OUT_top_d VSSd SmallW_Linv_2
x14 VDDd net4 OUT_bot_d VSSd SmallW_Linv_2
x5 VDDd net1 net3 VSSd SmallW_Linv_2
x8 VDDd net2 net4 VSSd SmallW_Linv_2
x9 CLK VDDd CLKB VSSd inv1u05u
x2 CLKB VDDd CLKbuf VSSd inv1u05u
x10 VDDd OUT_top OUT_bot_d CLKB VSSd asc_NAND
x1 VDDd OUT_bot OUT_top_d CLKbuf VSSd asc_NAND
x3 OUT_top VDDd PHI_2 VSSd inv1u05u
x6 OUT_bot VDDd PHI_1 VSSd inv1u05u
.ends


* expanding   symbol:  libs/xp_core_analog/xp_3_1_MUX/xp_3_1_MUX.sym # of pins=8
** sym_path: /foss/designs/libs/xp_core_analog/xp_3_1_MUX/xp_3_1_MUX.sym
** sch_path: /foss/designs/libs/xp_core_analog/xp_3_1_MUX/xp_3_1_MUX.sch
.subckt xp_3_1_MUX A_1 VDD VSS S0 S1 B_1 OUT_1 C_1
*.PININFO A_1:B B_1:B C_1:B OUT_1:B VDD:B VSS:B S0:B S1:B
x2 B_1 VSS S0_B net1 S0 VDD pass1u05u
x1 A_1 VSS S0 net1 S0_B VDD pass1u05u
x3 net1 VSS S1 OUT_1 S1_B VDD pass1u05u
x4 C_1 VSS S1_B OUT_1 S1 VDD pass1u05u
x7 S1 VDD S1_B VSS inv1u05u
x5 S0 VDD S0_B VSS inv1u05u
.ends


* expanding   symbol:  libs/core_analog/asc_drive_buffer/asc_drive_buffer.sym # of pins=4
** sym_path: /foss/designs/libs/core_analog/asc_drive_buffer/asc_drive_buffer.sym
** sch_path: /foss/designs/libs/core_analog/asc_drive_buffer/asc_drive_buffer.sch
.subckt asc_drive_buffer in vss out vdd
*.PININFO in:B out:B vss:B vdd:B
XM1 net1 in vdd vdd pfet_03v3 L=0.5u W=3.0u nf=1 m=1
XM2 net1 in vss vss nfet_03v3 L=0.5u W=1.0u nf=1 m=1
XM3 net2 net1 vdd vdd pfet_03v3 L=0.5u W=12.0u nf=1 m=1
XM4 net2 net1 vss vss nfet_03v3 L=0.5u W=4.0u nf=1 m=1
XM5 net3 net2 vdd vdd pfet_03v3 L=0.5u W=48.0u nf=4 m=1
XM6 net3 net2 vss vss nfet_03v3 L=0.5u W=16.0u nf=4 m=1
XM7 out net3 vdd vdd pfet_03v3 L=0.5u W=96.0u nf=8 m=1
XM8 out net3 vss vss nfet_03v3 L=0.5u W=32.0u nf=8 m=1
.ends


* expanding   symbol:  libs/core_analog/asc_drive_buffer_up/asc_drive_buffer_up.sym # of pins=4
** sym_path: /foss/designs/libs/core_analog/asc_drive_buffer_up/asc_drive_buffer_up.sym
** sch_path: /foss/designs/libs/core_analog/asc_drive_buffer_up/asc_drive_buffer_up.sch
.subckt asc_drive_buffer_up in vss out vdd
*.PININFO in:B out:B vss:B vdd:B
XM1 net1 in vdd vdd pfet_03v3 L=0.5u W=3.0u nf=1 m=1
XM2 net1 in vss vss nfet_03v3 L=0.5u W=1.0u nf=1 m=1
XM3 net2 net3 vdd vdd pfet_03v3 L=0.5u W=12.0u nf=1 m=1
XM4 net2 net3 vss vss nfet_03v3 L=0.5u W=4.0u nf=1 m=1
XM5 net4 net2 vdd vdd pfet_03v3 L=0.5u W=48.0u nf=4 m=1
XM6 net4 net2 vss vss nfet_03v3 L=0.5u W=16.0u nf=4 m=1
XM7 out net4 vdd vdd pfet_03v3 L=0.5u W=96.0u nf=8 m=1
XM8 out net4 vss vss nfet_03v3 L=0.5u W=32.0u nf=8 m=1
XM9 net3 net1 vdd vdd pfet_03v3 L=0.5u W=3.0u nf=1 m=1
XM10 net3 net1 vss vss nfet_03v3 L=0.5u W=1.0u nf=1 m=1
.ends


* expanding   symbol:  libs/core_analog/xp_programmable_basic_pump/xp_programmable_basic_pump.sym # of pins=10
** sym_path: /foss/designs/libs/core_analog/xp_programmable_basic_pump/xp_programmable_basic_pump.sym
** sch_path: /foss/designs/libs/core_analog/xp_programmable_basic_pump/xp_programmable_basic_pump.sch
.subckt xp_programmable_basic_pump vdd out vss s4 s3 s2 s1 down up iref
*.PININFO vdd:B vss:B up:B down:B iref:B out:B s3:B s4:B s1:B s2:B
XM6 out net5 net4 vss nfet_03v3 L=0.5u W=14.0u nf=2 m=1
XM8 net7 up VDD VDD pfet_03v3 L=0.5u W=42.0u nf=6 m=1
XM10 net6 vss VDD VDD pfet_03v3 L=0.5u W=42.0u nf=6 m=1
x2 net3 vss s1 net8 s1b vdd pass1u05u
x4 iref vss s1 net5 s1b vdd pass1u05u
x6 s1 vdd s1b vss inv1u05u
x7 s2 vdd s2b vss inv1u05u
x8 s3 vdd s3b vss inv1u05u
x9 s4 vdd s4b vss inv1u05u
XM12 out net10 net9 vss nfet_03v3 L=0.5u W=14.0u nf=2 m=2
XM14 net11 up VDD VDD pfet_03v3 L=0.5u W=42.0u nf=6 m=2
x12 net3 vss s2 net12 s2b vdd pass1u05u
x14 iref vss s2 net10 s2b vdd pass1u05u
XM16 out net14 net13 vss nfet_03v3 L=0.5u W=14.0u nf=2 m=4
XM18 net15 up VDD VDD pfet_03v3 L=0.5u W=42.0u nf=6 m=4
x16 net3 vss s3 net16 s3b vdd pass1u05u
x18 iref vss s3 net14 s3b vdd pass1u05u
XM19 out net20 net19 VDD pfet_03v3 L=0.5u W=42.0u nf=6 m=8
XM20 out net18 net17 vss nfet_03v3 L=0.5u W=14.0u nf=2 m=8
XM22 net19 up VDD VDD pfet_03v3 L=0.5u W=42.0u nf=6 m=8
x20 net3 vss s4 net20 s4b vdd pass1u05u
x22 iref vss s4 net18 s4b vdd pass1u05u
XM2 iref iref net1 vss nfet_03v3 L=0.5u W=14.0u nf=2 m=1
XM9 net3 net3 net6 VDD pfet_03v3 L=0.5u W=42.0u nf=6 m=1
XM1 out net8 net7 VDD pfet_03v3 L=0.5u W=42.0u nf=6 m=1
XM11 out net12 net11 VDD pfet_03v3 L=0.5u W=42.0u nf=6 m=2
XM15 out net16 net15 VDD pfet_03v3 L=0.5u W=42.0u nf=6 m=4
XM3 net1 vdd vss vss nfet_03v3 L=0.5u W=14.0u nf=2 m=1
XM4 net2 vdd vss vss nfet_03v3 L=0.5u W=14.0u nf=2 m=1
XM5 net3 iref net2 vss nfet_03v3 L=0.5u W=14.0u nf=2 m=1
XM21 net4 down vss vss nfet_03v3 L=0.5u W=14.0u nf=2 m=1
XM7 net9 down vss vss nfet_03v3 L=0.5u W=14.0u nf=2 m=2
XM13 net13 down vss vss nfet_03v3 L=0.5u W=14.0u nf=2 m=4
XM17 net17 down vss vss nfet_03v3 L=0.5u W=14.0u nf=2 m=8
XM23 vss vss vss vss nfet_03v3 L=0.5u W=14.0u nf=2 m=12
XM26 net5 s1b vss vss nfet_03v3 L=0.5u W=1.0u nf=1 m=1
XM29 net8 s1 VDD VDD pfet_03v3 L=0.5u W=1.0u nf=1 m=1
XM34 VDD VDD VDD VDD pfet_03v3 L=0.5u W=7.0u nf=1 m=24
XM25 net10 s2b vss vss nfet_03v3 L=0.5u W=1.0u nf=1 m=1
XM27 net14 s3b vss vss nfet_03v3 L=0.5u W=1.0u nf=1 m=1
XM28 net18 s4b vss vss nfet_03v3 L=0.5u W=1.0u nf=1 m=1
XM30 net12 s2 VDD VDD pfet_03v3 L=0.5u W=1.0u nf=1 m=1
XM31 net16 s3 VDD VDD pfet_03v3 L=0.5u W=1.0u nf=1 m=1
XM32 net20 s4 VDD VDD pfet_03v3 L=0.5u W=1.0u nf=1 m=1
.ends


* expanding   symbol:  libs/core_analog/asc_dual_psd_def_20250809/asc_dual_psd_def_20250809.sym # of pins=23
** sym_path: /foss/designs/libs/core_analog/asc_dual_psd_def_20250809/asc_dual_psd_def_20250809.sym
** sch_path: /foss/designs/libs/core_analog/asc_dual_psd_def_20250809/asc_dual_psd_def_20250809.sch
.subckt asc_dual_psd_def_20250809 fout sd9 sd8 sd7 sd6 sd5 sd4 sd3 sd2 sd1 vss fin vdd define pd9 pd8 pd7 pd6 pd5 pd4 pd3 pd2 pd1
*.PININFO vdd:B vss:B sd2:B sd1:B sd3:B sd5:B sd4:B sd6:B sd8:B sd7:B sd9:B define:B fin:B fout:B pd2:B pd1:B pd3:B pd5:B pd4:B
*+ pd6:B pd8:B pd7:B pd9:B
x5 vdd vss net1 define fout asc_OR
x2 mc sd9 sd8 sd7 sd6 sd5 sd4 sd3 sd2 sd1 vss net1 vdd a asc_swallow_counter_20250809
x3 fout pd9 pd8 pd7 pd6 pd5 pd4 pd3 pd2 pd1 vss net1 vdd a asc_9_bit_counter_20250809
x1 vdd vss a fin mc asc_dual_mod_pre_2_3_20250809
.ends


* expanding   symbol:  libs/core_analog/CSRVCO_20250823/CSRVCO_20250823.sym # of pins=4
** sym_path: /foss/designs/libs/core_analog/CSRVCO_20250823/CSRVCO_20250823.sym
** sch_path: /foss/designs/libs/core_analog/CSRVCO_20250823/CSRVCO_20250823.sch
.subckt CSRVCO_20250823 vctrl vdd vss vosc
*.PININFO vdd:B vss:B vosc:B vctrl:B
XM1 net8 net21 net1 vdd pfet_03v3 L=0.5u W=15.0u nf=1 m=1
XM2 net8 net21 net9 vss nfet_03v3 L=0.5u W=5.0u nf=1 m=1
XM3 net16 net8 net2 vdd pfet_03v3 L=0.5u W=15.0u nf=1 m=1
XM4 net16 net8 net10 vss nfet_03v3 L=0.5u W=5.0u nf=1 m=1
XM5 net17 net16 net3 vdd pfet_03v3 L=0.5u W=15.0u nf=1 m=1
XM6 net17 net16 net11 vss nfet_03v3 L=0.5u W=5.0u nf=1 m=1
XM7 net18 net17 net4 vdd pfet_03v3 L=0.5u W=15.0u nf=1 m=1
XM8 net18 net17 net12 vss nfet_03v3 L=0.5u W=5.0u nf=1 m=1
XM9 net19 net18 net5 vdd pfet_03v3 L=0.5u W=15.0u nf=1 m=1
XM10 net19 net18 net13 vss nfet_03v3 L=0.5u W=5.0u nf=1 m=1
XM11 net20 net19 net6 vdd pfet_03v3 L=0.5u W=15.0u nf=1 m=1
XM12 net20 net19 net14 vss nfet_03v3 L=0.5u W=5.0u nf=1 m=1
XM13 net21 net20 net7 vdd pfet_03v3 L=0.5u W=15.0u nf=1 m=1
XM14 net21 net20 net15 vss nfet_03v3 L=0.5u W=5.0u nf=1 m=1
XM15 net1 net22 vdd vdd pfet_03v3 L=0.5u W=15.0u nf=1 m=1
XM16 net9 vctrl vss vss nfet_03v3 L=0.5u W=5.0u nf=1 m=1
XM17 net2 net22 vdd vdd pfet_03v3 L=0.5u W=15.0u nf=1 m=1
XM18 net10 vctrl vss vss nfet_03v3 L=0.5u W=5.0u nf=1 m=1
XM19 net3 net22 vdd vdd pfet_03v3 L=0.5u W=15.0u nf=1 m=1
XM20 net11 vctrl vss vss nfet_03v3 L=0.5u W=5.0u nf=1 m=1
XM21 net4 net22 vdd vdd pfet_03v3 L=0.5u W=15.0u nf=1 m=1
XM22 net12 vctrl vss vss nfet_03v3 L=0.5u W=5.0u nf=1 m=1
XM23 net5 net22 vdd vdd pfet_03v3 L=0.5u W=15.0u nf=1 m=1
XM24 net13 vctrl vss vss nfet_03v3 L=0.5u W=5.0u nf=1 m=1
XM25 net6 net22 vdd vdd pfet_03v3 L=0.5u W=15.0u nf=1 m=1
XM26 net14 vctrl vss vss nfet_03v3 L=0.5u W=5.0u nf=1 m=1
XM27 net7 net22 vdd vdd pfet_03v3 L=0.5u W=15.0u nf=1 m=1
XM28 net15 vctrl vss vss nfet_03v3 L=0.5u W=5.0u nf=1 m=1
XM29 net22 net22 vdd vdd pfet_03v3 L=0.5u W=15.0u nf=1 m=1
XM30 net22 vctrl vss vss nfet_03v3 L=0.5u W=5.0u nf=1 m=1
x1 net21 vss vosc vdd asc_delay
XM31 vss vss vss vss nfet_03v3 L=0.5u W=5.0u nf=1 m=2
XM32 vdd vdd vdd vdd pfet_03v3 L=0.5u W=15.0u nf=1 m=2
XC1 net8 vss cap_mim_2f0fF c_width=10e-6 c_length=5e-6 m=1
XC2 net16 vss cap_mim_2f0fF c_width=10e-6 c_length=5e-6 m=1
XC3 net17 vss cap_mim_2f0fF c_width=10e-6 c_length=5e-6 m=1
XC4 net18 vss cap_mim_2f0fF c_width=10e-6 c_length=5e-6 m=1
XC5 net19 vss cap_mim_2f0fF c_width=10e-6 c_length=5e-6 m=1
XC6 net20 vss cap_mim_2f0fF c_width=10e-6 c_length=5e-6 m=1
XC7 net21 vss cap_mim_2f0fF c_width=10e-6 c_length=5e-6 m=1
.ends


* expanding   symbol:  libs/core_analog/asc_lock_detector_20250826/asc_lock_detector_20250826.sym # of pins=5
** sym_path: /foss/designs/libs/core_analog/asc_lock_detector_20250826/asc_lock_detector_20250826.sym
** sch_path: /foss/designs/libs/core_analog/asc_lock_detector_20250826/asc_lock_detector_20250826.sch
.subckt asc_lock_detector_20250826 vdd lock vss div ref
*.PININFO vdd:B vss:B div:B ref:B lock:B
x5 vdd lock ref_q div_q vss asc_AND
* noconn ignore1
* noconn ignore2
x1 div_d ref ignore1 vdd vss ref_q vss asc_dff_rst
x2 ref_d div_ex ignore2 vdd vss div_q vss asc_dff_rst
x3 div_ex vss div_d vdd asc_delay_LD
x4 ref vss ref_d vdd asc_delay_LD
x6 div vss div_ex vdd asc_pulse_ex
.ends


* expanding   symbol:  libs/core_analog/asc_PFD_DFF_20250831/asc_PFD_DFF_20250831.sym # of pins=6
** sym_path: /foss/designs/libs/core_analog/asc_PFD_DFF_20250831/asc_PFD_DFF_20250831.sym
** sch_path: /foss/designs/libs/core_analog/asc_PFD_DFF_20250831/asc_PFD_DFF_20250831.sch
.subckt asc_PFD_DFF_20250831 vdd vss down up fref fdiv
*.PININFO vdd:B vss:B fref:B fdiv:B up:B down:B
x4 net2 vdd net1 vss inv1u05u
x3 net1 vss rst vdd asc_delay
x5 vdd net2 up down vss asc_NAND
* noconn ignore1
* noconn ignore2
x1 phi1r vdd ignore1 vdd vss up rst phi2r asc_dff_rst_20250831
x6 phi2r fref vdd phi1r vss qw_NOLclk
x7 phi1d fdiv vdd phi2d vss qw_NOLclk
x2 phi2d vdd ignore2 vdd vss down rst phi1d asc_dff_rst_20250831
.ends


* expanding   symbol:  libs/core_analog/BIAS/BIAS.sym # of pins=7
** sym_path: /foss/designs/libs/core_analog/BIAS/BIAS.sym
** sch_path: /foss/designs/libs/core_analog/BIAS/BIAS.sch
.subckt BIAS vdd 200p2 200p1 res 100n 200n vss
*.PININFO res:B 100n:B 200n:B 200p1:B 200p2:B vdd:B vss:B
XM8 res res vdd vdd pfet_03v3 L=0.28u W=10u nf=4 m=2
XM1 100n res vdd vdd pfet_03v3 L=0.28u W=10u nf=4 m=2
XM2 200n res vdd vdd pfet_03v3 L=0.28u W=10u nf=4 m=4
XM3 net1 res vdd vdd pfet_03v3 L=0.28u W=10u nf=4 m=4
XM6 net1 net1 vss vss nfet_03v3 L=0.28u W=8u nf=4 m=2
XM4 200p1 net1 vss vss nfet_03v3 L=0.28u W=8u nf=4 m=2
XM5 200p2 net1 vss vss nfet_03v3 L=0.28u W=8u nf=4 m=2
XM7 vdd vdd vdd vdd pfet_03v3 L=0.28u W=10u nf=4 m=4
XM9 vss vss vss vss nfet_03v3 L=0.28u W=8u nf=4 m=2
.ends


* expanding   symbol:  libs/qw_core_analog/VCOfinal/VCOfinal.sym # of pins=12
** sym_path: /foss/designs/libs/qw_core_analog/VCOfinal/VCOfinal.sym
** sch_path: /foss/designs/libs/qw_core_analog/VCOfinal/VCOfinal.sch
.subckt VCOfinal vdd vss iref200 irefp irefn s0 s1 s2 s3 fout foutb vin
*.PININFO vin:B vdd:B vss:B iref200:B irefp:B irefn:B s0:B s1:B s2:B fout:B foutb:B s3:B
x3 vdd q qnot vss INV
x5 vdd net1 fout vss INV
x7 vdd net2 foutb vss INV
* noconn fout
x8 vdd vss vin iref200 osci qnot qb s0 s1 s2 s3 PCP1248X
XR3 vss vlow vss ppolyf_u r_width=1e-6 r_length=21e-6 m=1
XR1 vhigh vdd vss ppolyf_u r_width=1e-6 r_length=21e-6 m=1
XR2 vlow net3 vss ppolyf_u r_width=1e-6 r_length=21e-6 m=1
XR4 net3 vhigh vss ppolyf_u r_width=1e-6 r_length=21e-6 m=1
x6 vdd out_comp_high q qb out_comp_low vss SRLATCH
x9 vdd osci out_comp_high vhigh irefn vss Ncomparator
x11 vdd irefp vlow out_comp_low osci vss Pcomparator
x2 q net1 vdd vss SCHMITT
x1 qb net2 vdd vss SCHMITT
XC1 osci vss cap_mim_2f0fF c_width=60e-6 c_length=100e-6 m=1
.ends


* expanding   symbol:  libs/qw_core_analog/Register_unitcell/Register_unitcell.sym # of pins=9