* NGSPICE file created from top_level_nosc_20250831.ext - technology: gf180mcuD

.subckt nfet$47 a_750_0# a_546_0# a_446_n60# a_242_n60# a_38_n60# a_n84_0# a_342_0#
+ a_138_0# a_650_n60# VSUBS
X0 a_342_0# a_242_n60# a_138_0# VSUBS nfet_03v3 ad=1.04p pd=4.52u as=1.04p ps=4.52u w=4u l=0.5u
X1 a_546_0# a_446_n60# a_342_0# VSUBS nfet_03v3 ad=1.04p pd=4.52u as=1.04p ps=4.52u w=4u l=0.5u
X2 a_138_0# a_38_n60# a_n84_0# VSUBS nfet_03v3 ad=1.04p pd=4.52u as=2.44p ps=9.22u w=4u l=0.5u
X3 a_750_0# a_650_n60# a_546_0# VSUBS nfet_03v3 ad=2.44p pd=9.22u as=1.04p ps=4.52u w=4u l=0.5u
.ends

.subckt pfet$46 a_1158_0# a_750_0# a_1058_n136# a_546_0# a_1262_n136# a_1566_0# a_954_0#
+ w_n180_n88# a_854_n136# a_n92_0# a_446_n136# a_650_n136# a_342_0# a_1466_n136# a_138_0#
+ a_38_n136# a_1362_0# a_242_n136#
X0 a_1362_0# a_1262_n136# a_1158_0# w_n180_n88# pfet_03v3 ad=3.12p pd=12.52u as=3.12p ps=12.52u w=12u l=0.5u
X1 a_954_0# a_854_n136# a_750_0# w_n180_n88# pfet_03v3 ad=3.12p pd=12.52u as=3.12p ps=12.52u w=12u l=0.5u
X2 a_1566_0# a_1466_n136# a_1362_0# w_n180_n88# pfet_03v3 ad=7.8p pd=25.3u as=3.12p ps=12.52u w=12u l=0.5u
X3 a_342_0# a_242_n136# a_138_0# w_n180_n88# pfet_03v3 ad=3.12p pd=12.52u as=3.12p ps=12.52u w=12u l=0.5u
X4 a_546_0# a_446_n136# a_342_0# w_n180_n88# pfet_03v3 ad=3.12p pd=12.52u as=3.12p ps=12.52u w=12u l=0.5u
X5 a_1158_0# a_1058_n136# a_954_0# w_n180_n88# pfet_03v3 ad=3.12p pd=12.52u as=3.12p ps=12.52u w=12u l=0.5u
X6 a_138_0# a_38_n136# a_n92_0# w_n180_n88# pfet_03v3 ad=3.12p pd=12.52u as=7.8p ps=25.3u w=12u l=0.5u
X7 a_750_0# a_650_n136# a_546_0# w_n180_n88# pfet_03v3 ad=3.12p pd=12.52u as=3.12p ps=12.52u w=12u l=0.5u
.ends

.subckt nfet$50 a_38_n60# a_n84_0# a_138_0# VSUBS
X0 a_138_0# a_38_n60# a_n84_0# VSUBS nfet_03v3 ad=0.61p pd=3.22u as=0.61p ps=3.22u w=1u l=0.5u
.ends

.subckt pfet$49 w_n180_n88# a_n92_0# a_138_0# a_38_n136#
X0 a_138_0# a_38_n136# a_n92_0# w_n180_n88# pfet_03v3 ad=1.95p pd=7.3u as=1.95p ps=7.3u w=3u l=0.5u
.ends

.subckt nfet$48 a_1158_0# a_750_0# a_546_0# a_446_n60# a_242_n60# a_1566_0# a_954_0#
+ a_1466_n60# a_1262_n60# a_38_n60# a_n84_0# a_1058_n60# a_854_n60# a_342_0# a_138_0#
+ a_650_n60# a_1362_0# VSUBS
X0 a_954_0# a_854_n60# a_750_0# VSUBS nfet_03v3 ad=1.04p pd=4.52u as=1.04p ps=4.52u w=4u l=0.5u
X1 a_1566_0# a_1466_n60# a_1362_0# VSUBS nfet_03v3 ad=2.44p pd=9.22u as=1.04p ps=4.52u w=4u l=0.5u
X2 a_342_0# a_242_n60# a_138_0# VSUBS nfet_03v3 ad=1.04p pd=4.52u as=1.04p ps=4.52u w=4u l=0.5u
X3 a_546_0# a_446_n60# a_342_0# VSUBS nfet_03v3 ad=1.04p pd=4.52u as=1.04p ps=4.52u w=4u l=0.5u
X4 a_1158_0# a_1058_n60# a_954_0# VSUBS nfet_03v3 ad=1.04p pd=4.52u as=1.04p ps=4.52u w=4u l=0.5u
X5 a_138_0# a_38_n60# a_n84_0# VSUBS nfet_03v3 ad=1.04p pd=4.52u as=2.44p ps=9.22u w=4u l=0.5u
X6 a_750_0# a_650_n60# a_546_0# VSUBS nfet_03v3 ad=1.04p pd=4.52u as=1.04p ps=4.52u w=4u l=0.5u
X7 a_1362_0# a_1262_n60# a_1158_0# VSUBS nfet_03v3 ad=1.04p pd=4.52u as=1.04p ps=4.52u w=4u l=0.5u
.ends

.subckt pfet$47 a_750_0# a_546_0# w_n180_n88# a_n92_0# a_446_n136# a_650_n136# a_342_0#
+ a_138_0# a_38_n136# a_242_n136#
X0 a_342_0# a_242_n136# a_138_0# w_n180_n88# pfet_03v3 ad=3.12p pd=12.52u as=3.12p ps=12.52u w=12u l=0.5u
X1 a_546_0# a_446_n136# a_342_0# w_n180_n88# pfet_03v3 ad=3.12p pd=12.52u as=3.12p ps=12.52u w=12u l=0.5u
X2 a_138_0# a_38_n136# a_n92_0# w_n180_n88# pfet_03v3 ad=3.12p pd=12.52u as=7.8p ps=25.3u w=12u l=0.5u
X3 a_750_0# a_650_n136# a_546_0# w_n180_n88# pfet_03v3 ad=7.8p pd=25.3u as=3.12p ps=12.52u w=12u l=0.5u
.ends

.subckt nfet$51 a_38_n60# a_n84_0# a_138_0# VSUBS
X0 a_138_0# a_38_n60# a_n84_0# VSUBS nfet_03v3 ad=0.61p pd=3.22u as=0.61p ps=3.22u w=1u l=0.5u
.ends

.subckt pfet$50 w_n180_n88# a_n92_0# a_138_0# a_38_n136#
X0 a_138_0# a_38_n136# a_n92_0# w_n180_n88# pfet_03v3 ad=1.95p pd=7.3u as=1.95p ps=7.3u w=3u l=0.5u
.ends

.subckt nfet$49 a_38_n60# a_n84_0# a_138_0# VSUBS
X0 a_138_0# a_38_n60# a_n84_0# VSUBS nfet_03v3 ad=2.44p pd=9.22u as=2.44p ps=9.22u w=4u l=0.5u
.ends

.subckt pfet$48 w_n180_n88# a_n92_0# a_138_0# a_38_n136#
X0 a_138_0# a_38_n136# a_n92_0# w_n180_n88# pfet_03v3 ad=7.8p pd=25.3u as=7.8p ps=25.3u w=12u l=0.5u
.ends

.subckt asc_drive_buffer_up vss vdd out in
Xnfet$47_0 m1_778_712# vss m1_506_712# m1_506_712# m1_506_712# m1_778_712# m1_778_712#
+ vss m1_506_712# vss nfet$47
Xpfet$46_0 out out m1_778_712# vdd m1_778_712# out vdd vdd m1_778_712# out m1_778_712#
+ m1_778_712# out m1_778_712# vdd m1_778_712# vdd m1_778_712# pfet$46
Xnfet$50_0 m1_n566_1318# vss m1_n30_1318# vss nfet$50
Xpfet$49_0 vdd vdd m1_n30_1318# m1_n566_1318# pfet$49
Xnfet$48_0 out out vss m1_778_712# m1_778_712# out vss m1_778_712# m1_778_712# m1_778_712#
+ out m1_778_712# m1_778_712# out vss m1_778_712# vss vss nfet$48
Xpfet$47_0 m1_778_712# vdd vdd m1_778_712# m1_506_712# m1_506_712# m1_778_712# vdd
+ m1_506_712# m1_506_712# pfet$47
Xnfet$51_0 in vss m1_n566_1318# vss nfet$51
Xpfet$50_0 vdd vdd m1_n566_1318# in pfet$50
Xnfet$49_0 m1_n30_1318# vss m1_506_712# vss nfet$49
Xpfet$48_0 vdd vdd m1_506_712# m1_n30_1318# pfet$48
.ends

.subckt nfet$79 a_38_n60# a_n84_0# a_138_0# VSUBS
X0 a_138_0# a_38_n60# a_n84_0# VSUBS nfet_03v3 ad=0.61p pd=3.22u as=0.61p ps=3.22u w=1u l=0.5u
.ends

.subckt nfet$93 a_242_n60# a_38_n60# a_n84_0# a_342_0# a_138_0# VSUBS
X0 a_342_0# a_242_n60# a_138_0# VSUBS nfet_03v3 ad=0.61p pd=3.22u as=0.26p ps=1.52u w=1u l=0.5u
X1 a_138_0# a_38_n60# a_n84_0# VSUBS nfet_03v3 ad=0.26p pd=1.52u as=0.61p ps=3.22u w=1u l=0.5u
.ends

.subckt pfet$87 w_n180_n88# a_n92_0# a_138_0# a_38_n136#
X0 a_138_0# a_38_n136# a_n92_0# w_n180_n88# pfet_03v3 ad=1.95p pd=7.3u as=1.95p ps=7.3u w=3u l=0.5u
.ends

.subckt nfet$86 a_242_n60# a_38_n60# a_n84_0# a_342_0# a_138_0# VSUBS
X0 a_342_0# a_242_n60# a_138_0# VSUBS nfet_03v3 ad=0.61p pd=3.22u as=0.26p ps=1.52u w=1u l=0.5u
X1 a_138_0# a_38_n60# a_n84_0# VSUBS nfet_03v3 ad=0.26p pd=1.52u as=0.61p ps=3.22u w=1u l=0.5u
.ends

.subckt pfet$68 w_n180_n88# a_n92_0# a_342_0# a_138_0# a_38_n136# a_242_n136#
X0 a_342_0# a_242_n136# a_138_0# w_n180_n88# pfet_03v3 ad=1.95p pd=7.3u as=0.78p ps=3.52u w=3u l=0.5u
X1 a_138_0# a_38_n136# a_n92_0# w_n180_n88# pfet_03v3 ad=0.78p pd=3.52u as=1.95p ps=7.3u w=3u l=0.5u
.ends

.subckt pfet$66 w_n180_n88# a_n92_0# a_138_0# a_38_n136#
X0 a_138_0# a_38_n136# a_n92_0# w_n180_n88# pfet_03v3 ad=1.95p pd=7.3u as=1.95p ps=7.3u w=3u l=0.5u
.ends

.subckt pfet$78 w_n180_n88# a_n92_0# a_138_0# a_38_n136#
X0 a_138_0# a_38_n136# a_n92_0# w_n180_n88# pfet_03v3 ad=1.95p pd=7.3u as=1.95p ps=7.3u w=3u l=0.5u
.ends

.subckt nfet$91 a_38_n60# a_n84_0# a_138_0# VSUBS
X0 a_138_0# a_38_n60# a_n84_0# VSUBS nfet_03v3 ad=0.61p pd=3.22u as=0.61p ps=3.22u w=1u l=0.5u
.ends

.subckt pfet w_n180_n88# a_n92_0# a_138_0# a_38_n136#
X0 a_138_0# a_38_n136# a_n92_0# w_n180_n88# pfet_03v3 ad=1.95p pd=7.3u as=1.95p ps=7.3u w=3u l=0.5u
.ends

.subckt nfet$103 a_38_n60# a_n84_0# a_138_0# VSUBS
X0 a_138_0# a_38_n60# a_n84_0# VSUBS nfet_03v3 ad=0.61p pd=3.22u as=0.61p ps=3.22u w=1u l=0.5u
.ends

.subckt pfet$71 w_n180_n88# a_n92_0# a_138_0# a_38_n136#
X0 a_138_0# a_38_n136# a_n92_0# w_n180_n88# pfet_03v3 ad=1.95p pd=7.3u as=1.95p ps=7.3u w=3u l=0.5u
.ends

.subckt nfet$77 a_38_n60# a_n84_0# a_138_0# VSUBS
X0 a_138_0# a_38_n60# a_n84_0# VSUBS nfet_03v3 ad=0.61p pd=3.22u as=0.61p ps=3.22u w=1u l=0.5u
.ends

.subckt nfet$74 a_38_n60# a_n84_0# a_138_0# VSUBS
X0 a_138_0# a_38_n60# a_n84_0# VSUBS nfet_03v3 ad=0.61p pd=3.22u as=0.61p ps=3.22u w=1u l=0.5u
.ends

.subckt nfet$84 a_38_n60# a_n84_0# a_138_0# VSUBS
X0 a_138_0# a_38_n60# a_n84_0# VSUBS nfet_03v3 ad=0.61p pd=3.22u as=0.61p ps=3.22u w=1u l=0.5u
.ends

.subckt pfet$90 w_n180_n88# a_n92_0# a_138_0# a_38_n136#
X0 a_138_0# a_38_n136# a_n92_0# w_n180_n88# pfet_03v3 ad=1.95p pd=7.3u as=1.95p ps=7.3u w=3u l=0.5u
.ends

.subckt nfet$100 a_242_n60# a_38_n60# a_n84_0# a_342_0# a_138_0# VSUBS
X0 a_342_0# a_242_n60# a_138_0# VSUBS nfet_03v3 ad=0.61p pd=3.22u as=0.26p ps=1.52u w=1u l=0.5u
X1 a_138_0# a_38_n60# a_n84_0# VSUBS nfet_03v3 ad=0.26p pd=1.52u as=0.61p ps=3.22u w=1u l=0.5u
.ends

.subckt pfet$83 w_n180_n88# a_n92_0# a_138_0# a_38_n136#
X0 a_138_0# a_38_n136# a_n92_0# w_n180_n88# pfet_03v3 ad=1.95p pd=7.3u as=1.95p ps=7.3u w=3u l=0.5u
.ends

.subckt nfet$101 a_38_n60# a_n84_0# a_138_0# VSUBS
X0 a_138_0# a_38_n60# a_n84_0# VSUBS nfet_03v3 ad=0.61p pd=3.22u as=0.61p ps=3.22u w=1u l=0.5u
.ends

.subckt pfet$76 w_n180_n88# a_n92_0# a_342_0# a_138_0# a_38_n136# a_242_n136#
X0 a_342_0# a_242_n136# a_138_0# w_n180_n88# pfet_03v3 ad=1.95p pd=7.3u as=0.78p ps=3.52u w=3u l=0.5u
X1 a_138_0# a_38_n136# a_n92_0# w_n180_n88# pfet_03v3 ad=0.78p pd=3.52u as=1.95p ps=7.3u w=3u l=0.5u
.ends

.subckt pfet$69 w_n180_n88# a_n92_0# a_138_0# a_38_n136#
X0 a_138_0# a_38_n136# a_n92_0# w_n180_n88# pfet_03v3 ad=1.95p pd=7.3u as=1.95p ps=7.3u w=3u l=0.5u
.ends

.subckt nfet$82 a_38_n60# a_n84_0# a_138_0# VSUBS
X0 a_138_0# a_38_n60# a_n84_0# VSUBS nfet_03v3 ad=0.61p pd=3.22u as=0.61p ps=3.22u w=1u l=0.5u
.ends

.subckt nfet$75 a_242_n60# a_38_n60# a_n84_0# a_342_0# a_138_0# VSUBS
X0 a_342_0# a_242_n60# a_138_0# VSUBS nfet_03v3 ad=0.61p pd=3.22u as=0.26p ps=1.52u w=1u l=0.5u
X1 a_138_0# a_38_n60# a_n84_0# VSUBS nfet_03v3 ad=0.26p pd=1.52u as=0.61p ps=3.22u w=1u l=0.5u
.ends

.subckt pfet$81 w_n180_n88# a_n92_0# a_342_0# a_138_0# a_38_n136# a_242_n136#
X0 a_342_0# a_242_n136# a_138_0# w_n180_n88# pfet_03v3 ad=1.95p pd=7.3u as=0.78p ps=3.52u w=3u l=0.5u
X1 a_138_0# a_38_n136# a_n92_0# w_n180_n88# pfet_03v3 ad=0.78p pd=3.52u as=1.95p ps=7.3u w=3u l=0.5u
.ends

.subckt pfet$74 w_n180_n88# a_n92_0# a_138_0# a_38_n136#
X0 a_138_0# a_38_n136# a_n92_0# w_n180_n88# pfet_03v3 ad=1.95p pd=7.3u as=1.95p ps=7.3u w=3u l=0.5u
.ends

.subckt nfet$78 a_38_n60# a_n84_0# a_138_0# VSUBS
X0 a_138_0# a_38_n60# a_n84_0# VSUBS nfet_03v3 ad=0.61p pd=3.22u as=0.61p ps=3.22u w=1u l=0.5u
.ends

.subckt nfet$98 a_242_n60# a_38_n60# a_n84_0# a_342_0# a_138_0# VSUBS
X0 a_342_0# a_242_n60# a_138_0# VSUBS nfet_03v3 ad=0.61p pd=3.22u as=0.26p ps=1.52u w=1u l=0.5u
X1 a_138_0# a_38_n60# a_n84_0# VSUBS nfet_03v3 ad=0.26p pd=1.52u as=0.61p ps=3.22u w=1u l=0.5u
.ends

.subckt nfet$80 a_38_n60# a_n84_0# a_138_0# VSUBS
X0 a_138_0# a_38_n60# a_n84_0# VSUBS nfet_03v3 ad=0.61p pd=3.22u as=0.61p ps=3.22u w=1u l=0.5u
.ends

.subckt pfet$67 w_n180_n88# a_n92_0# a_342_0# a_138_0# a_38_n136# a_242_n136#
X0 a_342_0# a_242_n136# a_138_0# w_n180_n88# pfet_03v3 ad=1.95p pd=7.3u as=0.78p ps=3.52u w=3u l=0.5u
X1 a_138_0# a_38_n136# a_n92_0# w_n180_n88# pfet_03v3 ad=0.78p pd=3.52u as=1.95p ps=7.3u w=3u l=0.5u
.ends

.subckt nfet$94 a_242_n60# a_38_n60# a_n84_0# a_342_0# a_138_0# VSUBS
X0 a_342_0# a_242_n60# a_138_0# VSUBS nfet_03v3 ad=0.61p pd=3.22u as=0.26p ps=1.52u w=1u l=0.5u
X1 a_138_0# a_38_n60# a_n84_0# VSUBS nfet_03v3 ad=0.26p pd=1.52u as=0.61p ps=3.22u w=1u l=0.5u
.ends

.subckt pfet$97 w_n180_n88# a_n92_0# a_138_0# a_38_n136#
X0 a_138_0# a_38_n136# a_n92_0# w_n180_n88# pfet_03v3 ad=1.95p pd=7.3u as=1.95p ps=7.3u w=3u l=0.5u
.ends

.subckt pfet$77 w_n180_n88# a_n92_0# a_138_0# a_38_n136#
X0 a_138_0# a_38_n136# a_n92_0# w_n180_n88# pfet_03v3 ad=1.95p pd=7.3u as=1.95p ps=7.3u w=3u l=0.5u
.ends

.subckt nfet a_242_n60# a_38_n60# a_n84_0# a_342_0# a_138_0# VSUBS
X0 a_342_0# a_242_n60# a_138_0# VSUBS nfet_03v3 ad=0.61p pd=3.22u as=0.26p ps=1.52u w=1u l=0.5u
X1 a_138_0# a_38_n60# a_n84_0# VSUBS nfet_03v3 ad=0.26p pd=1.52u as=0.61p ps=3.22u w=1u l=0.5u
.ends

.subckt nfet$108 a_38_n60# a_n84_0# a_138_0# VSUBS
X0 a_138_0# a_38_n60# a_n84_0# VSUBS nfet_03v3 ad=0.61p pd=3.22u as=0.61p ps=3.22u w=1u l=0.5u
.ends

.subckt pfet$72 w_n180_n88# a_n92_0# a_138_0# a_38_n136#
X0 a_138_0# a_38_n136# a_n92_0# w_n180_n88# pfet_03v3 ad=1.95p pd=7.3u as=1.95p ps=7.3u w=3u l=0.5u
.ends

.subckt nfet$96 a_38_n60# a_n84_0# a_138_0# VSUBS
X0 a_138_0# a_38_n60# a_n84_0# VSUBS nfet_03v3 ad=0.61p pd=3.22u as=0.61p ps=3.22u w=1u l=0.5u
.ends

.subckt nfet$89 a_38_n60# a_n84_0# a_138_0# VSUBS
X0 a_138_0# a_38_n60# a_n84_0# VSUBS nfet_03v3 ad=0.61p pd=3.22u as=0.61p ps=3.22u w=1u l=0.5u
.ends

.subckt pfet$95 w_n180_n88# a_n92_0# a_138_0# a_38_n136#
X0 a_138_0# a_38_n136# a_n92_0# w_n180_n88# pfet_03v3 ad=1.95p pd=7.3u as=1.95p ps=7.3u w=3u l=0.5u
.ends

.subckt pfet$88 w_n180_n88# a_n92_0# a_138_0# a_38_n136#
X0 a_138_0# a_38_n136# a_n92_0# w_n180_n88# pfet_03v3 ad=1.95p pd=7.3u as=1.95p ps=7.3u w=3u l=0.5u
.ends

.subckt nfet$106 a_38_n60# a_n84_0# a_138_0# VSUBS
X0 a_138_0# a_38_n60# a_n84_0# VSUBS nfet_03v3 ad=0.61p pd=3.22u as=0.61p ps=3.22u w=1u l=0.5u
.ends

.subckt pfet$70 w_n180_n88# a_n92_0# a_138_0# a_38_n136#
X0 a_138_0# a_38_n136# a_n92_0# w_n180_n88# pfet_03v3 ad=1.95p pd=7.3u as=1.95p ps=7.3u w=3u l=0.5u
.ends

.subckt nfet$87 a_242_n60# a_38_n60# a_n84_0# a_342_0# a_138_0# VSUBS
X0 a_342_0# a_242_n60# a_138_0# VSUBS nfet_03v3 ad=0.61p pd=3.22u as=0.26p ps=1.52u w=1u l=0.5u
X1 a_138_0# a_38_n60# a_n84_0# VSUBS nfet_03v3 ad=0.26p pd=1.52u as=0.61p ps=3.22u w=1u l=0.5u
.ends

.subckt pfet$93 w_n180_n88# a_n92_0# a_342_0# a_138_0# a_38_n136# a_242_n136#
X0 a_342_0# a_242_n136# a_138_0# w_n180_n88# pfet_03v3 ad=1.95p pd=7.3u as=0.78p ps=3.52u w=3u l=0.5u
X1 a_138_0# a_38_n136# a_n92_0# w_n180_n88# pfet_03v3 ad=0.78p pd=3.52u as=1.95p ps=7.3u w=3u l=0.5u
.ends

.subckt pfet$86 w_n180_n88# a_n92_0# a_342_0# a_138_0# a_38_n136# a_242_n136#
X0 a_342_0# a_242_n136# a_138_0# w_n180_n88# pfet_03v3 ad=1.95p pd=7.3u as=0.78p ps=3.52u w=3u l=0.5u
X1 a_138_0# a_38_n136# a_n92_0# w_n180_n88# pfet_03v3 ad=0.78p pd=3.52u as=1.95p ps=7.3u w=3u l=0.5u
.ends

.subckt nfet$104 a_38_n60# a_n84_0# a_138_0# VSUBS
X0 a_138_0# a_38_n60# a_n84_0# VSUBS nfet_03v3 ad=0.61p pd=3.22u as=0.61p ps=3.22u w=1u l=0.5u
.ends

.subckt nfet$92 a_38_n60# a_n84_0# a_138_0# VSUBS
X0 a_138_0# a_38_n60# a_n84_0# VSUBS nfet_03v3 ad=0.61p pd=3.22u as=0.61p ps=3.22u w=1u l=0.5u
.ends

.subckt pfet$79 w_n180_n88# a_n92_0# a_138_0# a_38_n136#
X0 a_138_0# a_38_n136# a_n92_0# w_n180_n88# pfet_03v3 ad=1.95p pd=7.3u as=1.95p ps=7.3u w=3u l=0.5u
.ends

.subckt nfet$85 a_242_n60# a_38_n60# a_n84_0# a_342_0# a_138_0# VSUBS
X0 a_342_0# a_242_n60# a_138_0# VSUBS nfet_03v3 ad=0.61p pd=3.22u as=0.26p ps=1.52u w=1u l=0.5u
X1 a_138_0# a_38_n60# a_n84_0# VSUBS nfet_03v3 ad=0.26p pd=1.52u as=0.61p ps=3.22u w=1u l=0.5u
.ends

.subckt pfet$91 w_n180_n88# a_n92_0# a_138_0# a_38_n136#
X0 a_138_0# a_38_n136# a_n92_0# w_n180_n88# pfet_03v3 ad=1.95p pd=7.3u as=1.95p ps=7.3u w=3u l=0.5u
.ends

.subckt nfet$81 a_38_n60# a_n84_0# a_138_0# VSUBS
X0 a_138_0# a_38_n60# a_n84_0# VSUBS nfet_03v3 ad=0.61p pd=3.22u as=0.61p ps=3.22u w=1u l=0.5u
.ends

.subckt nfet$76 a_242_n60# a_38_n60# a_n84_0# a_342_0# a_138_0# VSUBS
X0 a_342_0# a_242_n60# a_138_0# VSUBS nfet_03v3 ad=0.61p pd=3.22u as=0.26p ps=1.52u w=1u l=0.5u
X1 a_138_0# a_38_n60# a_n84_0# VSUBS nfet_03v3 ad=0.26p pd=1.52u as=0.61p ps=3.22u w=1u l=0.5u
.ends

.subckt pfet$84 w_n180_n88# a_n92_0# a_138_0# a_38_n136#
X0 a_138_0# a_38_n136# a_n92_0# w_n180_n88# pfet_03v3 ad=1.95p pd=7.3u as=1.95p ps=7.3u w=3u l=0.5u
.ends

.subckt nfet$102 a_242_n60# a_38_n60# a_n84_0# a_342_0# a_138_0# VSUBS
X0 a_342_0# a_242_n60# a_138_0# VSUBS nfet_03v3 ad=0.61p pd=3.22u as=0.26p ps=1.52u w=1u l=0.5u
X1 a_138_0# a_38_n60# a_n84_0# VSUBS nfet_03v3 ad=0.26p pd=1.52u as=0.61p ps=3.22u w=1u l=0.5u
.ends

.subckt nfet$90 a_38_n60# a_n84_0# a_138_0# VSUBS
X0 a_138_0# a_38_n60# a_n84_0# VSUBS nfet_03v3 ad=0.61p pd=3.22u as=0.61p ps=3.22u w=1u l=0.5u
.ends

.subckt nfet$83 a_38_n60# a_n84_0# a_138_0# VSUBS
X0 a_138_0# a_38_n60# a_n84_0# VSUBS nfet_03v3 ad=0.61p pd=3.22u as=0.61p ps=3.22u w=1u l=0.5u
.ends

.subckt pfet$82 w_n180_n88# a_n92_0# a_138_0# a_38_n136#
X0 a_138_0# a_38_n136# a_n92_0# w_n180_n88# pfet_03v3 ad=1.95p pd=7.3u as=1.95p ps=7.3u w=3u l=0.5u
.ends

.subckt pfet$75 w_n180_n88# a_n92_0# a_342_0# a_138_0# a_38_n136# a_242_n136#
X0 a_342_0# a_242_n136# a_138_0# w_n180_n88# pfet_03v3 ad=1.95p pd=7.3u as=0.78p ps=3.52u w=3u l=0.5u
X1 a_138_0# a_38_n136# a_n92_0# w_n180_n88# pfet_03v3 ad=0.78p pd=3.52u as=1.95p ps=7.3u w=3u l=0.5u
.ends

.subckt nfet$99 a_38_n60# a_n84_0# a_138_0# VSUBS
X0 a_138_0# a_38_n60# a_n84_0# VSUBS nfet_03v3 ad=0.61p pd=3.22u as=0.61p ps=3.22u w=1u l=0.5u
.ends

.subckt pfet$80 w_n180_n88# a_n92_0# a_138_0# a_38_n136#
X0 a_138_0# a_38_n136# a_n92_0# w_n180_n88# pfet_03v3 ad=1.95p pd=7.3u as=1.95p ps=7.3u w=3u l=0.5u
.ends

.subckt nfet$109 a_38_n60# a_n84_0# a_138_0# VSUBS
X0 a_138_0# a_38_n60# a_n84_0# VSUBS nfet_03v3 ad=0.61p pd=3.22u as=0.61p ps=3.22u w=1u l=0.5u
.ends

.subckt pfet$73 w_n180_n88# a_n92_0# a_138_0# a_38_n136#
X0 a_138_0# a_38_n136# a_n92_0# w_n180_n88# pfet_03v3 ad=1.95p pd=7.3u as=1.95p ps=7.3u w=3u l=0.5u
.ends

.subckt nfet$97 a_242_n60# a_38_n60# a_n84_0# a_342_0# a_138_0# VSUBS
X0 a_342_0# a_242_n60# a_138_0# VSUBS nfet_03v3 ad=0.61p pd=3.22u as=0.26p ps=1.52u w=1u l=0.5u
X1 a_138_0# a_38_n60# a_n84_0# VSUBS nfet_03v3 ad=0.26p pd=1.52u as=0.61p ps=3.22u w=1u l=0.5u
.ends

.subckt pfet$96 w_n180_n88# a_n92_0# a_342_0# a_138_0# a_38_n136# a_242_n136#
X0 a_342_0# a_242_n136# a_138_0# w_n180_n88# pfet_03v3 ad=1.95p pd=7.3u as=0.78p ps=3.52u w=3u l=0.5u
X1 a_138_0# a_38_n136# a_n92_0# w_n180_n88# pfet_03v3 ad=0.78p pd=3.52u as=1.95p ps=7.3u w=3u l=0.5u
.ends

.subckt pfet$89 w_n180_n88# a_n92_0# a_138_0# a_38_n136#
X0 a_138_0# a_38_n136# a_n92_0# w_n180_n88# pfet_03v3 ad=1.95p pd=7.3u as=1.95p ps=7.3u w=3u l=0.5u
.ends

.subckt nfet$107 a_242_n60# a_38_n60# a_n84_0# a_342_0# a_138_0# VSUBS
X0 a_342_0# a_242_n60# a_138_0# VSUBS nfet_03v3 ad=0.61p pd=3.22u as=0.26p ps=1.52u w=1u l=0.5u
X1 a_138_0# a_38_n60# a_n84_0# VSUBS nfet_03v3 ad=0.26p pd=1.52u as=0.61p ps=3.22u w=1u l=0.5u
.ends

.subckt nfet$95 a_38_n60# a_n84_0# a_138_0# VSUBS
X0 a_138_0# a_38_n60# a_n84_0# VSUBS nfet_03v3 ad=0.61p pd=3.22u as=0.61p ps=3.22u w=1u l=0.5u
.ends

.subckt nfet$88 a_242_n60# a_38_n60# a_n84_0# a_342_0# a_138_0# VSUBS
X0 a_342_0# a_242_n60# a_138_0# VSUBS nfet_03v3 ad=0.61p pd=3.22u as=0.26p ps=1.52u w=1u l=0.5u
X1 a_138_0# a_38_n60# a_n84_0# VSUBS nfet_03v3 ad=0.26p pd=1.52u as=0.61p ps=3.22u w=1u l=0.5u
.ends

.subckt pfet$94 w_n180_n88# a_n92_0# a_342_0# a_138_0# a_38_n136# a_242_n136#
X0 a_342_0# a_242_n136# a_138_0# w_n180_n88# pfet_03v3 ad=1.95p pd=7.3u as=0.78p ps=3.52u w=3u l=0.5u
X1 a_138_0# a_38_n136# a_n92_0# w_n180_n88# pfet_03v3 ad=0.78p pd=3.52u as=1.95p ps=7.3u w=3u l=0.5u
.ends

.subckt nfet$105 a_38_n60# a_n84_0# a_138_0# VSUBS
X0 a_138_0# a_38_n60# a_n84_0# VSUBS nfet_03v3 ad=0.61p pd=3.22u as=0.61p ps=3.22u w=1u l=0.5u
.ends

.subckt pfet$92 w_n180_n88# a_n92_0# a_138_0# a_38_n136#
X0 a_138_0# a_38_n136# a_n92_0# w_n180_n88# pfet_03v3 ad=1.95p pd=7.3u as=1.95p ps=7.3u w=3u l=0.5u
.ends

.subckt pfet$85 w_n180_n88# a_n92_0# a_138_0# a_38_n136#
X0 a_138_0# a_38_n136# a_n92_0# w_n180_n88# pfet_03v3 ad=1.95p pd=7.3u as=1.95p ps=7.3u w=3u l=0.5u
.ends

.subckt asc_dual_psd_def_20250809 vdd vss pd1 pd2 pd3 pd4 pd5 pd6 pd7 pd8 pd9 fout
+ sd1 sd2 sd3 sd4 sd5 sd6 sd7 sd8 sd9 fin define w_n11156_26804#
Xnfet$79_1 m1_n3218_15478# vss m1_4620_20152# vss nfet$79
Xnfet$93_3 m1_11381_15778# m1_11381_15778# m1_11271_18030# m1_11271_18030# m1_11507_17358#
+ vss nfet$93
Xpfet$87_4 w_n11156_26804# m1_n2567_23922# m1_n3184_24224# m1_n4464_25980# pfet$87
Xnfet$86_2 m1_8154_21786# m1_8154_21786# vss vss m1_6992_21586# vss nfet$86
Xpfet$68_25 w_n11156_26804# w_n11156_26804# w_n11156_26804# m1_17526_19550# m1_13514_15478#
+ m1_13514_15478# pfet$68
Xpfet$68_14 w_n11156_26804# m1_n927_19404# m1_n927_19404# m1_n59_19550# m1_n7383_17599#
+ m1_n7383_17599# pfet$68
Xpfet$66_9 w_n11156_26804# w_n11156_26804# m1_8172_15778# m1_5302_17714# pfet$66
Xpfet$78_0 w_n11156_26804# m1_34093_22102# w_n11156_26804# m1_28490_22513# pfet$78
Xnfet$91_0 m1_34093_22102# vss fout vss nfet$91
Xpfet_0 w_n11156_26804# w_n11156_26804# m1_3049_25662# m1_2912_25858# pfet
Xnfet$103_1 m1_n10796_25662# m1_n10572_23922# m1_n10308_24542# vss nfet$103
Xpfet$71_7 w_n11156_26804# w_n11156_26804# m1_11654_20152# m1_5148_15478# pfet$71
Xnfet$93_26 m1_14127_16080# m1_14127_16080# m1_13668_17714# m1_13668_17714# m1_14225_16398#
+ vss nfet$93
Xnfet$77_49 m1_21564_17714# vss m1_18665_17343# vss nfet$77
Xnfet$77_27 m1_1119_17714# vss m1_3989_15778# vss nfet$77
Xnfet$77_16 m1_6275_17836# m1_7198_15778# m1_6377_16202# vss nfet$77
Xnfet$77_38 m1_n2250_17343# m1_n1989_16202# m1_n2474_17518# vss nfet$77
Xnfet$93_15 m1_n1989_16202# m1_n1989_16202# vss vss m1_n2507_16398# vss nfet$93
Xpfet_91 w_n11156_26804# w_n11156_26804# m1_23356_21786# pd8 pfet
Xpfet_80 w_n11156_26804# w_n11156_26804# m1_17058_24346# m1_n7513_20152# pfet
Xnfet$74_39 pd4 vss m1_9288_21786# vss nfet$74
Xpfet$66_91 w_n11156_26804# m1_24287_16080# m1_23820_18030# m1_22848_17343# pfet$66
Xpfet$66_80 w_n11156_26804# w_n11156_26804# m1_15564_15778# m1_15921_16080# pfet$66
Xnfet$74_28 m1_3394_25858# vss m1_4005_21786# vss nfet$74
Xnfet$74_17 m1_11639_23922# vss m1_12259_24224# vss nfet$74
Xnfet$93_4 m1_10560_16202# m1_10560_16202# vss vss m1_10042_16398# vss nfet$93
Xpfet$87_5 w_n11156_26804# m1_n10572_23922# m1_n10308_24542# m1_n10933_25858# pfet$87
Xnfet$86_3 m1_7522_21786# m1_7522_21786# vss vss m1_6360_21586# vss nfet$86
Xnfet$79_2 m1_n7401_15478# vss m1_1103_20152# vss nfet$79
Xpfet$68_26 w_n11156_26804# m1_n1927_20274# m1_n1927_20274# m1_17526_19550# m1_13198_17714#
+ m1_13198_17714# pfet$68
Xpfet$68_15 w_n11156_26804# w_n11156_26804# w_n11156_26804# m1_n59_19550# m1_n7401_15478#
+ m1_n7401_15478# pfet$68
Xpfet$78_1 w_n11156_26804# w_n11156_26804# m1_34093_22102# m1_34843_21786# pfet$78
Xnfet$84_0 pd1 vss m1_n1263_21786# vss nfet$84
Xnfet$103_2 m1_n10933_25858# m1_n10309_25662# m1_n10572_23922# vss nfet$103
Xpfet_1 w_n11156_26804# m1_3536_25662# m1_3273_23922# m1_3049_25662# pfet
Xpfet$90_0 w_n11156_26804# w_n11156_26804# m1_n8145_21908# m1_n6839_20152# pfet$90
Xpfet$71_8 w_n11156_26804# w_n11156_26804# m1_n1133_19550# m1_n7383_17599# pfet$71
Xnfet$93_27 m1_18310_16080# m1_18310_16080# vss vss m1_19873_17358# vss nfet$93
Xnfet$93_16 m1_19747_15778# m1_19747_15778# m1_19637_18030# m1_19637_18030# m1_19873_17358#
+ vss nfet$93
Xnfet$77_28 m1_1933_17343# vss m1_2092_17836# vss nfet$77
Xnfet$77_17 m1_649_17714# vss m1_n2250_17343# vss nfet$77
Xnfet$77_39 m1_n3064_17714# vss m1_n3534_17714# vss nfet$77
Xpfet_92 w_n11156_26804# w_n11156_26804# m1_28492_25858# m1_29607_24346# pfet
Xpfet_81 w_n11156_26804# w_n11156_26804# m1_18339_24542# m1_15943_25858# pfet
Xpfet_70 w_n11156_26804# w_n11156_26804# m1_14156_24542# m1_11760_25858# pfet
Xnfet$74_29 m1_15943_25858# vss m1_14556_21786# vss nfet$74
Xpfet$66_92 w_n11156_26804# m1_15454_18030# w_n11156_26804# m1_14127_16080# pfet$66
Xpfet$66_81 w_n11156_26804# w_n11156_26804# m1_13668_17714# m1_14127_16080# pfet$66
Xpfet$66_70 w_n11156_26804# w_n11156_26804# m1_18824_17836# m1_18665_17343# pfet$66
Xnfet$74_18 m1_7095_25858# vss m1_7232_25662# vss nfet$74
Xnfet$100_10 m1_9624_19404# m1_9624_19404# vss vss m1_n3724_21430# vss nfet$100
Xpfet$87_6 w_n11156_26804# m1_n8848_25658# m1_n8055_24542# m1_n10796_25662# pfet$87
Xnfet$79_3 m1_649_17714# vss m1_5901_19550# vss nfet$79
Xnfet$93_5 m1_9944_16080# m1_9944_16080# m1_9485_17714# m1_9485_17714# m1_10042_16398#
+ vss nfet$93
Xnfet$86_4 m1_1120_21786# m1_1120_21786# vss vss m1_n42_21586# vss nfet$86
Xpfet$68_27 w_n11156_26804# w_n11156_26804# w_n11156_26804# m1_20407_19850# m1_22205_20152#
+ m1_22205_20152# pfet$68
Xpfet$68_16 w_n11156_26804# w_n11156_26804# w_n11156_26804# m1_28077_19550# m1_26063_15478#
+ m1_26063_15478# pfet$68
Xpfet$78_2 w_n11156_26804# w_n11156_26804# m1_30256_22102# m1_7388_22513# pfet$78
Xnfet$84_1 pd2 vss m1_2254_21786# vss nfet$84
Xnfet$77_0 m1_9485_17714# vss m1_9015_17714# vss nfet$77
Xnfet$103_3 m1_n10796_25662# m1_n9952_24224# m1_n8848_25658# vss nfet$103
Xpfet$71_9 w_n11156_26804# w_n11156_26804# m1_27003_19550# m1_25747_17714# pfet$71
Xpfet_2 w_n11156_26804# w_n11156_26804# m1_3394_25858# m1_4509_24346# pfet
Xnfet$93_17 m1_22493_16080# m1_22493_16080# vss vss m1_24056_17358# vss nfet$93
Xnfet$77_29 m1_3372_16080# vss m1_3015_15778# vss nfet$77
Xnfet$77_18 m1_1119_17714# vss m1_649_17714# vss nfet$77
Xpfet$83_0 w_n11156_26804# w_n11156_26804# m1_n7247_17714# m1_n6788_16080# pfet$83
Xpfet$90_1 w_n11156_26804# m1_n5227_20152# w_n11156_26804# m1_n1927_20274# pfet$90
Xnfet$101_0 m1_n8625_26174# vss m1_n8055_24542# vss nfet$101
Xpfet_93 w_n11156_26804# m1_28991_24224# m1_30095_25658# m1_28010_25858# pfet
Xpfet_82 w_n11156_26804# w_n11156_26804# m1_21241_24346# m1_n7513_20152# pfet
Xpfet_71 w_n11156_26804# w_n11156_26804# m1_11039_21786# m1_11760_25858# pfet
Xpfet_60 w_n11156_26804# w_n11156_26804# m1_20126_25858# m1_21241_24346# pfet
Xpfet$66_93 w_n11156_26804# m1_23820_18030# w_n11156_26804# m1_22493_16080# pfet$66
Xpfet$66_82 w_n11156_26804# m1_13668_17714# w_n11156_26804# m1_14743_16202# pfet$66
Xpfet$66_71 w_n11156_26804# w_n11156_26804# m1_19747_15778# m1_20104_16080# pfet$66
Xpfet$66_60 w_n11156_26804# w_n11156_26804# m1_n194_15778# m1_n3064_17714# pfet$66
Xnfet$74_19 m1_7456_23922# vss m1_8076_24224# vss nfet$74
Xnfet$100_11 m1_n6380_21786# m1_n6380_21786# m1_n6839_21786# m1_n6839_21786# m1_n6282_21430#
+ vss nfet$100
Xnfet$79_4 m1_4832_17714# vss m1_9418_19550# vss nfet$79
Xnfet$93_6 m1_1578_16080# m1_1578_16080# vss vss m1_3141_17358# vss nfet$93
Xpfet$87_7 w_n11156_26804# m1_n3541_23922# m1_n4362_24346# m1_n4623_25487# pfet$87
Xnfet$86_5 m1_4005_21786# m1_4005_21786# vss vss m1_2843_21586# vss nfet$86
Xpfet$68_28 w_n11156_26804# w_n11156_26804# w_n11156_26804# m1_21043_19550# m1_17697_15478#
+ m1_17697_15478# pfet$68
Xpfet$68_17 w_n11156_26804# m1_n3822_20130# m1_n3822_20130# m1_28077_19550# m1_25747_17714#
+ m1_25747_17714# pfet$68
Xpfet$78_3 w_n11156_26804# m1_31535_22102# w_n11156_26804# m1_3871_22513# pfet$78
Xnfet$84_2 pd9 vss m1_26873_21786# vss nfet$84
Xnfet$77_1 m1_9015_17714# vss m1_6116_17343# vss nfet$77
Xnfet$103_4 m1_n4623_25487# m1_n2567_23922# m1_n3184_24224# vss nfet$103
Xpfet_3 w_n11156_26804# m1_3394_25858# w_n11156_26804# m1_4997_25658# pfet
Xnfet$93_18 m1_23930_15778# m1_23930_15778# m1_23820_18030# m1_23820_18030# m1_24056_17358#
+ vss nfet$93
Xpfet$76_0 w_n11156_26804# m1_32818_20470# m1_32818_20470# m1_33050_19550# m1_30256_19792#
+ m1_30256_19792# pfet$76
Xnfet$77_19 m1_n7513_20152# vss m1_1578_16080# vss nfet$77
Xpfet$90_2 w_n11156_26804# w_n11156_26804# m1_n5227_20152# m1_n2543_20130# pfet$90
Xpfet$83_1 w_n11156_26804# m1_n7247_17714# w_n11156_26804# m1_n6172_16202# pfet$83
Xnfet$101_1 m1_n8625_26174# vss m1_n7082_23622# vss nfet$101
Xpfet_94 w_n11156_26804# m1_28492_25858# w_n11156_26804# m1_30095_25658# pfet
Xpfet_83 w_n11156_26804# m1_21729_25658# m1_22522_24542# m1_19781_25662# pfet
Xpfet_72 w_n11156_26804# m1_13363_25658# m1_14156_24542# m1_11415_25662# pfet
Xpfet_61 w_n11156_26804# m1_24452_24542# w_n11156_26804# m1_25424_24346# pfet
Xpfet_50 w_n11156_26804# w_n11156_26804# m1_20268_25662# m1_20126_25858# pfet
Xpfet$66_50 w_n11156_26804# m1_n1168_15778# m1_n1989_16202# m1_n2250_17343# pfet$66
Xpfet$66_94 w_n11156_26804# w_n11156_26804# m1_22624_17518# m1_22034_17714# pfet$66
Xpfet$66_83 w_n11156_26804# m1_16538_15778# m1_15921_16080# m1_14641_17836# pfet$66
Xpfet$66_72 w_n11156_26804# m1_20721_15778# m1_20104_16080# m1_18824_17836# pfet$66
Xpfet$66_61 w_n11156_26804# m1_n811_16080# m1_n1278_18030# m1_n2250_17343# pfet$66
Xnfet$79_5 m1_965_15478# vss m1_8137_20152# vss nfet$79
Xnfet$93_7 m1_5761_16080# m1_5761_16080# m1_5302_17714# m1_5302_17714# m1_5859_16398#
+ vss nfet$93
Xnfet$86_6 m1_4637_21786# m1_4637_21786# vss vss m1_3475_21586# vss nfet$86
Xpfet$68_29 w_n11156_26804# w_n11156_26804# w_n11156_26804# m1_23924_19850# m1_25722_20152#
+ m1_25722_20152# pfet$68
Xpfet$68_18 w_n11156_26804# w_n11156_26804# w_n11156_26804# m1_27441_19850# m1_29239_20152#
+ m1_29239_20152# pfet$68
Xpfet$78_4 w_n11156_26804# m1_30256_22102# w_n11156_26804# m1_9645_21447# pfet$78
Xnfet$77_2 m1_6275_17836# m1_7555_16080# m1_7088_18030# vss nfet$77
Xnfet$103_5 m1_n4464_25980# m1_n3541_23922# m1_n4362_24346# vss nfet$103
Xpfet_4 w_n11156_26804# w_n11156_26804# m1_3893_24224# m1_3273_23922# pfet
Xpfet$76_1 w_n11156_26804# w_n11156_26804# w_n11156_26804# m1_33050_19550# m1_31535_19792#
+ m1_31535_19792# pfet$76
Xpfet$90_3 w_n11156_26804# m1_n4485_20152# w_n11156_26804# m1_n3206_20274# pfet$90
Xpfet$83_2 w_n11156_26804# w_n11156_26804# m1_n5461_18030# m1_n5351_15778# pfet$83
Xpfet$69_0 w_n11156_26804# w_n11156_26804# m1_n1133_21590# m1_n1263_21786# pfet$69
Xnfet$82_0 m1_n10452_25858# vss m1_n1271_25858# vss nfet$82
Xnfet$93_19 m1_23109_16202# m1_23109_16202# vss vss m1_22591_16398# vss nfet$93
Xnfet$101_2 vss vss m1_n9336_24346# vss nfet$101
Xpfet_95 w_n11156_26804# w_n11156_26804# m1_28991_24224# m1_28371_23922# pfet
Xpfet_84 w_n11156_26804# w_n11156_26804# m1_23827_25858# m1_18073_21786# pfet
Xpfet_73 w_n11156_26804# m1_16086_24542# w_n11156_26804# m1_17058_24346# pfet
Xpfet_62 w_n11156_26804# w_n11156_26804# m1_24452_24542# m1_24808_24224# pfet
Xpfet_51 w_n11156_26804# w_n11156_26804# m1_20625_24224# m1_20005_23922# pfet
Xpfet_40 w_n11156_26804# w_n11156_26804# m1_11760_25858# m1_12875_24346# pfet
Xpfet$66_95 w_n11156_26804# w_n11156_26804# m1_21564_17714# m1_22034_17714# pfet$66
Xpfet$66_84 w_n11156_26804# w_n11156_26804# m1_17381_17714# m1_17851_17714# pfet$66
Xpfet$66_73 w_n11156_26804# w_n11156_26804# m1_16538_15778# m1_13668_17714# pfet$66
Xpfet$66_62 w_n11156_26804# w_n11156_26804# m1_23007_17836# m1_22848_17343# pfet$66
Xpfet$66_40 w_n11156_26804# m1_10560_16202# m1_10075_17518# m1_10458_17836# pfet$66
Xpfet$66_51 w_n11156_26804# w_n11156_26804# m1_n1168_15778# m1_n811_16080# pfet$66
Xnfet$86_7 m1_488_21786# m1_488_21786# vss vss m1_n674_21586# vss nfet$86
Xnfet$79_6 m1_9015_17714# vss m1_12935_19550# vss nfet$79
Xnfet$93_8 m1_3015_15778# m1_3015_15778# m1_2905_18030# m1_2905_18030# m1_3141_17358#
+ vss nfet$93
Xpfet$68_19 w_n11156_26804# m1_n3822_20130# m1_n3822_20130# m1_27441_19850# m1_27003_19550#
+ m1_27003_19550# pfet$68