* NGSPICE file created from top_level_20250919_final.ext - technology: gf180mcuD

.subckt ppolyf_u_resistor$6 a_n376_0# a_5400_0# a_n132_0#
X0 a_n132_0# a_5400_0# a_n376_0# ppolyf_u r_width=1u r_length=27u
.ends

.subckt cap_nmos$1 a_88_n92# a_0_0#
X0 a_88_n92# a_0_0# cap_nmos_03v3 c_width=10u c_length=10u
.ends

.subckt DECAP_SC a_n313_2257# vdd vss
Xcap_nmos$1_0 vdd vss cap_nmos$1
Xcap_nmos$1_1 vdd vss cap_nmos$1
Xcap_nmos$1_2 vdd vss cap_nmos$1
Xcap_nmos$1_3 vdd vss cap_nmos$1
.ends

.subckt DECAP_LARGE vdd vss
XDECAP_SC_0 vss vdd vss DECAP_SC
XDECAP_SC_1 vss vdd vss DECAP_SC
XDECAP_SC_2 DECAP_SC_2/a_n313_2257# vdd vss DECAP_SC
XDECAP_SC_3 DECAP_SC_3/a_n313_2257# vdd vss DECAP_SC
XDECAP_SC_4 DECAP_SC_4/a_n313_2257# vdd vss DECAP_SC
XDECAP_SC_5 DECAP_SC_5/a_n313_2257# vdd vss DECAP_SC
XDECAP_SC_6 DECAP_SC_6/a_n313_2257# vdd vss DECAP_SC
XDECAP_SC_7 DECAP_SC_7/a_n313_2257# vdd vss DECAP_SC
XDECAP_SC_8 DECAP_SC_8/a_n313_2257# vdd vss DECAP_SC
XDECAP_SC_90 DECAP_SC_90/a_n313_2257# vdd vss DECAP_SC
XDECAP_SC_9 DECAP_SC_9/a_n313_2257# vdd vss DECAP_SC
XDECAP_SC_80 vss vdd vss DECAP_SC
XDECAP_SC_91 DECAP_SC_91/a_n313_2257# vdd vss DECAP_SC
XDECAP_SC_70 vss vdd vss DECAP_SC
XDECAP_SC_81 vss vdd vss DECAP_SC
XDECAP_SC_92 vss vdd vss DECAP_SC
XDECAP_SC_71 vss vdd vss DECAP_SC
XDECAP_SC_60 vss vdd vss DECAP_SC
XDECAP_SC_93 vss vdd vss DECAP_SC
XDECAP_SC_82 vss vdd vss DECAP_SC
XDECAP_SC_50 vss vdd vss DECAP_SC
XDECAP_SC_72 DECAP_SC_72/a_n313_2257# vdd vss DECAP_SC
XDECAP_SC_94 vss vdd vss DECAP_SC
XDECAP_SC_61 vss vdd vss DECAP_SC
XDECAP_SC_83 vss vdd vss DECAP_SC
XDECAP_SC_40 DECAP_SC_40/a_n313_2257# vdd vss DECAP_SC
XDECAP_SC_51 vss vdd vss DECAP_SC
XDECAP_SC_73 vss vdd vss DECAP_SC
XDECAP_SC_95 vss vdd vss DECAP_SC
XDECAP_SC_62 vss vdd vss DECAP_SC
XDECAP_SC_84 vss vdd vss DECAP_SC
XDECAP_SC_52 DECAP_SC_52/a_n313_2257# vdd vss DECAP_SC
XDECAP_SC_41 DECAP_SC_41/a_n313_2257# vdd vss DECAP_SC
XDECAP_SC_30 vss vdd vss DECAP_SC
XDECAP_SC_120 DECAP_SC_120/a_n313_2257# vdd vss DECAP_SC
XDECAP_SC_96 DECAP_SC_96/a_n313_2257# vdd vss DECAP_SC
XDECAP_SC_63 vss vdd vss DECAP_SC
XDECAP_SC_74 vss vdd vss DECAP_SC
XDECAP_SC_85 vss vdd vss DECAP_SC
XDECAP_SC_64 vss vdd vss DECAP_SC
XDECAP_SC_42 vss vdd vss DECAP_SC
XDECAP_SC_31 vss vdd vss DECAP_SC
XDECAP_SC_20 vss vdd vss DECAP_SC
XDECAP_SC_97 vss vdd vss DECAP_SC
XDECAP_SC_53 vss vdd vss DECAP_SC
XDECAP_SC_75 vss vdd vss DECAP_SC
XDECAP_SC_86 vss vdd vss DECAP_SC
XDECAP_SC_121 vss vdd vss DECAP_SC
XDECAP_SC_110 vss vdd vss DECAP_SC
XDECAP_SC_65 vss vdd vss DECAP_SC
XDECAP_SC_43 vss vdd vss DECAP_SC
XDECAP_SC_54 vss vdd vss DECAP_SC
XDECAP_SC_21 vss vdd vss DECAP_SC
XDECAP_SC_10 vss vdd vss DECAP_SC
XDECAP_SC_122 vss vdd vss DECAP_SC
XDECAP_SC_98 vss vdd vss DECAP_SC
XDECAP_SC_100 vss vdd vss DECAP_SC
XDECAP_SC_111 vss vdd vss DECAP_SC
XDECAP_SC_32 DECAP_SC_32/a_n313_2257# vdd vss DECAP_SC
XDECAP_SC_76 vss vdd vss DECAP_SC
XDECAP_SC_87 vss vdd vss DECAP_SC
XDECAP_SC_66 vss vdd vss DECAP_SC
XDECAP_SC_44 DECAP_SC_44/a_n313_2257# vdd vss DECAP_SC
XDECAP_SC_88 vss vdd vss DECAP_SC
XDECAP_SC_55 vss vdd vss DECAP_SC
XDECAP_SC_22 vss vdd vss DECAP_SC
XDECAP_SC_11 vss vdd vss DECAP_SC
XDECAP_SC_99 vss vdd vss DECAP_SC
XDECAP_SC_33 vss vdd vss DECAP_SC
XDECAP_SC_77 vss vdd vss DECAP_SC
XDECAP_SC_123 vss vdd vss DECAP_SC
XDECAP_SC_101 vss vdd vss DECAP_SC
XDECAP_SC_112 DECAP_SC_112/a_n313_2257# vdd vss DECAP_SC
XDECAP_SC_67 vss vdd vss DECAP_SC
XDECAP_SC_89 vss vdd vss DECAP_SC
XDECAP_SC_56 vss vdd vss DECAP_SC
XDECAP_SC_23 vss vdd vss DECAP_SC
XDECAP_SC_12 DECAP_SC_12/a_n313_2257# vdd vss DECAP_SC
XDECAP_SC_102 DECAP_SC_102/a_n313_2257# vdd vss DECAP_SC
XDECAP_SC_124 vss vdd vss DECAP_SC
XDECAP_SC_113 vss vdd vss DECAP_SC
XDECAP_SC_34 vss vdd vss DECAP_SC
XDECAP_SC_45 DECAP_SC_45/a_n313_2257# vdd vss DECAP_SC
XDECAP_SC_78 vss vdd vss DECAP_SC
XDECAP_SC_46 vss vdd vss DECAP_SC
XDECAP_SC_68 vss vdd vss DECAP_SC
XDECAP_SC_57 vss vdd vss DECAP_SC
XDECAP_SC_24 vss vdd vss DECAP_SC
XDECAP_SC_13 vss vdd vss DECAP_SC
XDECAP_SC_103 DECAP_SC_103/a_n313_2257# vdd vss DECAP_SC
XDECAP_SC_125 vss vdd vss DECAP_SC
XDECAP_SC_114 vss vdd vss DECAP_SC
XDECAP_SC_35 vss vdd vss DECAP_SC
XDECAP_SC_79 vss vdd vss DECAP_SC
XDECAP_SC_47 vss vdd vss DECAP_SC
XDECAP_SC_69 vss vdd vss DECAP_SC
XDECAP_SC_25 vss vdd vss DECAP_SC
XDECAP_SC_14 vss vdd vss DECAP_SC
XDECAP_SC_58 vss vdd vss DECAP_SC
XDECAP_SC_36 vss vdd vss DECAP_SC
XDECAP_SC_104 DECAP_SC_104/a_n313_2257# vdd vss DECAP_SC
XDECAP_SC_115 vss vdd vss DECAP_SC
XDECAP_SC_48 vss vdd vss DECAP_SC
XDECAP_SC_26 vss vdd vss DECAP_SC
XDECAP_SC_15 vss vdd vss DECAP_SC
XDECAP_SC_105 DECAP_SC_105/a_n313_2257# vdd vss DECAP_SC
XDECAP_SC_116 vss vdd vss DECAP_SC
XDECAP_SC_59 DECAP_SC_59/a_n313_2257# vdd vss DECAP_SC
XDECAP_SC_37 vss vdd vss DECAP_SC
XDECAP_SC_49 vss vdd vss DECAP_SC
XDECAP_SC_27 vss vdd vss DECAP_SC
XDECAP_SC_16 vss vdd vss DECAP_SC
XDECAP_SC_38 vss vdd vss DECAP_SC
XDECAP_SC_106 DECAP_SC_106/a_n313_2257# vdd vss DECAP_SC
XDECAP_SC_117 vss vdd vss DECAP_SC
XDECAP_SC_28 vss vdd vss DECAP_SC
XDECAP_SC_17 vss vdd vss DECAP_SC
XDECAP_SC_107 DECAP_SC_107/a_n313_2257# vdd vss DECAP_SC
XDECAP_SC_118 vss vdd vss DECAP_SC
XDECAP_SC_39 vss vdd vss DECAP_SC
XDECAP_SC_29 vss vdd vss DECAP_SC
XDECAP_SC_18 vss vdd vss DECAP_SC
XDECAP_SC_108 DECAP_SC_108/a_n313_2257# vdd vss DECAP_SC
XDECAP_SC_119 vss vdd vss DECAP_SC
XDECAP_SC_19 vss vdd vss DECAP_SC
XDECAP_SC_109 DECAP_SC_109/a_n313_2257# vdd vss DECAP_SC
.ends

.subckt diode_nd2ps a_n168_0# a_0_0#
D0 a_n168_0# a_0_0# diode_nd2ps_03v3 pj=40u area=99.99999p
.ends

.subckt diode_pd2nw w_n224_n86# a_0_0#
D0 a_0_0# w_n224_n86# diode_pd2nw_03v3 pj=40u area=99.99999p
.ends

.subckt ppolyf_u_resistor$3 a_n376_0# a_1100_0# a_n132_0#
X0 a_n132_0# a_1100_0# a_n376_0# ppolyf_u r_width=40u r_length=5.5u
.ends

.subckt io_secondary_3p3 ASIG3V3 VDD VSS to_gate
Xdiode_nd2ps_0 VSS to_gate diode_nd2ps
Xdiode_nd2ps_1 VSS to_gate diode_nd2ps
Xdiode_pd2nw_0 VDD to_gate diode_pd2nw
Xdiode_nd2ps_2 VSS to_gate diode_nd2ps
Xdiode_pd2nw_1 VDD to_gate diode_pd2nw
Xdiode_nd2ps_3 VSS to_gate diode_nd2ps
Xdiode_pd2nw_2 VDD to_gate diode_pd2nw
Xdiode_pd2nw_3 VDD to_gate diode_pd2nw
Xppolyf_u_resistor$3_0 VSS ASIG3V3 to_gate ppolyf_u_resistor$3
.ends

.subckt pfet$270 w_n180_n88# a_n92_0# a_138_0# a_38_n136#
X0 a_138_0# a_38_n136# a_n92_0# w_n180_n88# pfet_03v3 ad=1.95p pd=7.3u as=1.95p ps=7.3u w=3u l=0.5u
.ends

.subckt nfet$287 a_1158_0# a_750_0# a_546_0# a_446_n60# a_242_n60# a_1566_0# a_954_0#
+ a_1466_n60# a_1262_n60# a_38_n60# a_n84_0# a_1058_n60# a_854_n60# a_342_0# a_138_0#
+ a_650_n60# a_1362_0# VSUBS
X0 a_954_0# a_854_n60# a_750_0# VSUBS nfet_03v3 ad=1.04p pd=4.52u as=1.04p ps=4.52u w=4u l=0.5u
X1 a_1566_0# a_1466_n60# a_1362_0# VSUBS nfet_03v3 ad=2.44p pd=9.22u as=1.04p ps=4.52u w=4u l=0.5u
X2 a_342_0# a_242_n60# a_138_0# VSUBS nfet_03v3 ad=1.04p pd=4.52u as=1.04p ps=4.52u w=4u l=0.5u
X3 a_546_0# a_446_n60# a_342_0# VSUBS nfet_03v3 ad=1.04p pd=4.52u as=1.04p ps=4.52u w=4u l=0.5u
X4 a_1158_0# a_1058_n60# a_954_0# VSUBS nfet_03v3 ad=1.04p pd=4.52u as=1.04p ps=4.52u w=4u l=0.5u
X5 a_138_0# a_38_n60# a_n84_0# VSUBS nfet_03v3 ad=1.04p pd=4.52u as=2.44p ps=9.22u w=4u l=0.5u
X6 a_750_0# a_650_n60# a_546_0# VSUBS nfet_03v3 ad=1.04p pd=4.52u as=1.04p ps=4.52u w=4u l=0.5u
X7 a_1362_0# a_1262_n60# a_1158_0# VSUBS nfet_03v3 ad=1.04p pd=4.52u as=1.04p ps=4.52u w=4u l=0.5u
.ends

.subckt nfet$285 a_38_n60# a_n84_0# a_138_0# VSUBS
X0 a_138_0# a_38_n60# a_n84_0# VSUBS nfet_03v3 ad=2.44p pd=9.22u as=2.44p ps=9.22u w=4u l=0.5u
.ends

.subckt pfet$268 w_n180_n88# a_n92_0# a_138_0# a_38_n136#
X0 a_138_0# a_38_n136# a_n92_0# w_n180_n88# pfet_03v3 ad=1.95p pd=7.3u as=1.95p ps=7.3u w=3u l=0.5u
.ends

.subckt pfet$266 a_750_0# a_546_0# w_n180_n88# a_n92_0# a_446_n136# a_650_n136# a_342_0#
+ a_138_0# a_38_n136# a_242_n136#
X0 a_342_0# a_242_n136# a_138_0# w_n180_n88# pfet_03v3 ad=3.12p pd=12.52u as=3.12p ps=12.52u w=12u l=0.5u
X1 a_546_0# a_446_n136# a_342_0# w_n180_n88# pfet_03v3 ad=3.12p pd=12.52u as=3.12p ps=12.52u w=12u l=0.5u
X2 a_138_0# a_38_n136# a_n92_0# w_n180_n88# pfet_03v3 ad=3.12p pd=12.52u as=7.8p ps=25.3u w=12u l=0.5u
X3 a_750_0# a_650_n136# a_546_0# w_n180_n88# pfet_03v3 ad=7.8p pd=25.3u as=3.12p ps=12.52u w=12u l=0.5u
.ends

.subckt nfet$288 a_38_n60# a_n84_0# a_138_0# VSUBS
X0 a_138_0# a_38_n60# a_n84_0# VSUBS nfet_03v3 ad=0.61p pd=3.22u as=0.61p ps=3.22u w=1u l=0.5u
.ends

.subckt nfet$286 a_38_n60# a_n84_0# a_138_0# VSUBS
X0 a_138_0# a_38_n60# a_n84_0# VSUBS nfet_03v3 ad=0.61p pd=3.22u as=0.61p ps=3.22u w=1u l=0.5u
.ends

.subckt nfet$284 a_750_0# a_546_0# a_446_n60# a_242_n60# a_38_n60# a_n84_0# a_342_0#
+ a_138_0# a_650_n60# VSUBS
X0 a_342_0# a_242_n60# a_138_0# VSUBS nfet_03v3 ad=1.04p pd=4.52u as=1.04p ps=4.52u w=4u l=0.5u
X1 a_546_0# a_446_n60# a_342_0# VSUBS nfet_03v3 ad=1.04p pd=4.52u as=1.04p ps=4.52u w=4u l=0.5u
X2 a_138_0# a_38_n60# a_n84_0# VSUBS nfet_03v3 ad=1.04p pd=4.52u as=2.44p ps=9.22u w=4u l=0.5u
X3 a_750_0# a_650_n60# a_546_0# VSUBS nfet_03v3 ad=2.44p pd=9.22u as=1.04p ps=4.52u w=4u l=0.5u
.ends

.subckt pfet$269 a_1158_0# a_750_0# a_1058_n136# a_546_0# a_1262_n136# a_1566_0# a_954_0#
+ w_n180_n88# a_854_n136# a_n92_0# a_446_n136# a_650_n136# a_342_0# a_1466_n136# a_138_0#
+ a_38_n136# a_1362_0# a_242_n136#
X0 a_1362_0# a_1262_n136# a_1158_0# w_n180_n88# pfet_03v3 ad=3.12p pd=12.52u as=3.12p ps=12.52u w=12u l=0.5u
X1 a_954_0# a_854_n136# a_750_0# w_n180_n88# pfet_03v3 ad=3.12p pd=12.52u as=3.12p ps=12.52u w=12u l=0.5u
X2 a_1566_0# a_1466_n136# a_1362_0# w_n180_n88# pfet_03v3 ad=7.8p pd=25.3u as=3.12p ps=12.52u w=12u l=0.5u
X3 a_342_0# a_242_n136# a_138_0# w_n180_n88# pfet_03v3 ad=3.12p pd=12.52u as=3.12p ps=12.52u w=12u l=0.5u
X4 a_546_0# a_446_n136# a_342_0# w_n180_n88# pfet_03v3 ad=3.12p pd=12.52u as=3.12p ps=12.52u w=12u l=0.5u
X5 a_1158_0# a_1058_n136# a_954_0# w_n180_n88# pfet_03v3 ad=3.12p pd=12.52u as=3.12p ps=12.52u w=12u l=0.5u
X6 a_138_0# a_38_n136# a_n92_0# w_n180_n88# pfet_03v3 ad=3.12p pd=12.52u as=7.8p ps=25.3u w=12u l=0.5u
X7 a_750_0# a_650_n136# a_546_0# w_n180_n88# pfet_03v3 ad=3.12p pd=12.52u as=3.12p ps=12.52u w=12u l=0.5u
.ends

.subckt pfet$267 w_n180_n88# a_n92_0# a_138_0# a_38_n136#
X0 a_138_0# a_38_n136# a_n92_0# w_n180_n88# pfet_03v3 ad=7.8p pd=25.3u as=7.8p ps=25.3u w=12u l=0.5u
.ends

.subckt asc_hysteresis_buffer$4 vss in vdd out
Xpfet$270_0 vdd vdd m1_884_42# m1_1156_42# pfet$270
Xnfet$287_0 out out vss m1_1156_42# m1_1156_42# out vss m1_1156_42# m1_1156_42# m1_1156_42#
+ out m1_1156_42# m1_1156_42# out vss m1_1156_42# vss vss nfet$287
Xnfet$285_0 m1_348_648# vss m1_884_42# vss nfet$285
Xpfet$268_0 vdd vdd m1_348_648# in pfet$268
Xpfet$266_0 m1_1156_42# vdd vdd m1_1156_42# m1_884_42# m1_884_42# m1_1156_42# vdd
+ m1_884_42# m1_884_42# pfet$266
Xnfet$288_0 m1_1156_42# vss m1_884_42# vss nfet$288
Xnfet$286_0 in vss m1_348_648# vss nfet$286
Xnfet$284_0 m1_1156_42# vss m1_884_42# m1_884_42# m1_884_42# m1_1156_42# m1_1156_42#
+ vss m1_884_42# vss nfet$284
Xpfet$269_0 out out m1_1156_42# vdd m1_1156_42# out vdd vdd m1_1156_42# out m1_1156_42#
+ m1_1156_42# out m1_1156_42# vdd m1_1156_42# vdd m1_1156_42# pfet$269
Xpfet$267_0 vdd vdd m1_884_42# m1_348_648# pfet$267
.ends

.subckt pfet$286 w_n180_n88# a_n92_0# a_138_0# a_38_n136#
X0 a_138_0# a_38_n136# a_n92_0# w_n180_n88# pfet_03v3 ad=1.95p pd=7.3u as=1.95p ps=7.3u w=3u l=0.5u
.ends

.subckt nfet$305 a_38_n60# a_n84_0# a_138_0# VSUBS
X0 a_138_0# a_38_n60# a_n84_0# VSUBS nfet_03v3 ad=0.61p pd=3.22u as=0.61p ps=3.22u w=1u l=0.5u
.ends

.subckt pfet$287 w_n180_n88# a_n92_0# a_138_0# a_38_n136#
X0 a_138_0# a_38_n136# a_n92_0# w_n180_n88# pfet_03v3 ad=1.95p pd=7.3u as=1.95p ps=7.3u w=3u l=0.5u
.ends

.subckt nfet$304 a_38_n60# a_n84_0# a_138_0# VSUBS
X0 a_138_0# a_38_n60# a_n84_0# VSUBS nfet_03v3 ad=0.61p pd=3.22u as=0.61p ps=3.22u w=1u l=0.5u
.ends

.subckt xp_3_1_MUX$3 S0 S1 VDD VSS OUT_1 C_1 B_1 A_1
Xpfet$286_0 VDD A_1 m1_239_n318# m1_n432_458# pfet$286
Xpfet$286_2 VDD B_1 m1_239_n318# S0 pfet$286
Xpfet$286_1 VDD C_1 OUT_1 S1 pfet$286
Xpfet$286_3 VDD m1_239_n318# OUT_1 m1_n432_n1290# pfet$286
Xnfet$305_0 S1 VSS m1_n432_n1290# VSS nfet$305
Xnfet$305_1 S0 VSS m1_n432_458# VSS nfet$305
Xpfet$287_0 VDD VDD m1_n432_n1290# S1 pfet$287
Xpfet$287_1 VDD VDD m1_n432_458# S0 pfet$287
Xnfet$304_0 m1_n432_n1290# C_1 OUT_1 VSS nfet$304
Xnfet$304_1 m1_n432_458# B_1 m1_239_n318# VSS nfet$304
Xnfet$304_2 S1 m1_239_n318# OUT_1 VSS nfet$304
Xnfet$304_3 S0 A_1 m1_239_n318# VSS nfet$304
.ends

.subckt nfet$242 a_38_n60# a_n84_0# a_138_0# VSUBS
X0 a_138_0# a_38_n60# a_n84_0# VSUBS nfet_03v3 ad=0.61p pd=3.22u as=0.61p ps=3.22u w=1u l=0.5u
.ends

.subckt nfet$245 a_38_n60# a_n84_0# a_138_0# VSUBS
X0 a_138_0# a_38_n60# a_n84_0# VSUBS nfet_03v3 ad=0.61p pd=3.22u as=0.61p ps=3.22u w=1u l=0.5u
.ends

.subckt pfet$251 w_n180_n88# a_n92_0# a_138_0# a_38_n136#
X0 a_138_0# a_38_n136# a_n92_0# w_n180_n88# pfet_03v3 ad=1.95p pd=7.3u as=1.95p ps=7.3u w=3u l=0.5u
.ends

.subckt pfet$228 w_n180_n88# a_n92_0# a_138_0# a_38_n136#
X0 a_138_0# a_38_n136# a_n92_0# w_n180_n88# pfet_03v3 ad=1.95p pd=7.3u as=1.95p ps=7.3u w=3u l=0.5u
.ends

.subckt nfet$247 a_38_n60# a_n84_0# a_138_0# VSUBS
X0 a_138_0# a_38_n60# a_n84_0# VSUBS nfet_03v3 ad=0.61p pd=3.22u as=0.61p ps=3.22u w=1u l=0.5u
.ends

.subckt nfet$250 a_38_n60# a_n84_0# a_138_0# VSUBS
X0 a_138_0# a_38_n60# a_n84_0# VSUBS nfet_03v3 ad=0.61p pd=3.22u as=0.61p ps=3.22u w=1u l=0.5u
.ends

.subckt pfet$242 w_n180_n88# a_n92_0# a_342_0# a_138_0# a_38_n136# a_242_n136#
X0 a_342_0# a_242_n136# a_138_0# w_n180_n88# pfet_03v3 ad=1.95p pd=7.3u as=0.78p ps=3.52u w=3u l=0.5u
X1 a_138_0# a_38_n136# a_n92_0# w_n180_n88# pfet_03v3 ad=0.78p pd=3.52u as=1.95p ps=7.3u w=3u l=0.5u
.ends

.subckt pfet$235 w_n180_n88# a_n92_0# a_138_0# a_38_n136#
X0 a_138_0# a_38_n136# a_n92_0# w_n180_n88# pfet_03v3 ad=1.95p pd=7.3u as=1.95p ps=7.3u w=3u l=0.5u
.ends

.subckt nfet$244 a_242_n60# a_38_n60# a_n84_0# a_342_0# a_138_0# VSUBS
X0 a_342_0# a_242_n60# a_138_0# VSUBS nfet_03v3 ad=0.61p pd=3.22u as=0.26p ps=1.52u w=1u l=0.5u
X1 a_138_0# a_38_n60# a_n84_0# VSUBS nfet_03v3 ad=0.26p pd=1.52u as=0.61p ps=3.22u w=1u l=0.5u
.ends

.subckt nfet$269 a_38_n60# a_n84_0# a_138_0# VSUBS
X0 a_138_0# a_38_n60# a_n84_0# VSUBS nfet_03v3 ad=0.61p pd=3.22u as=0.61p ps=3.22u w=1u l=0.5u
.ends

.subckt pfet$232 w_n180_n88# a_n92_0# a_138_0# a_38_n136#
X0 a_138_0# a_38_n136# a_n92_0# w_n180_n88# pfet_03v3 ad=1.95p pd=7.3u as=1.95p ps=7.3u w=3u l=0.5u
.ends

.subckt pfet$227 w_n180_n88# a_n92_0# a_138_0# a_38_n136#
X0 a_138_0# a_38_n136# a_n92_0# w_n180_n88# pfet_03v3 ad=1.95p pd=7.3u as=1.95p ps=7.3u w=3u l=0.5u
.ends

.subckt nfet$249 a_38_n60# a_n84_0# a_138_0# VSUBS
X0 a_138_0# a_38_n60# a_n84_0# VSUBS nfet_03v3 ad=0.61p pd=3.22u as=0.61p ps=3.22u w=1u l=0.5u
.ends

.subckt nfet$268 a_242_n60# a_38_n60# a_n84_0# a_342_0# a_138_0# VSUBS
X0 a_342_0# a_242_n60# a_138_0# VSUBS nfet_03v3 ad=0.61p pd=3.22u as=0.26p ps=1.52u w=1u l=0.5u
X1 a_138_0# a_38_n60# a_n84_0# VSUBS nfet_03v3 ad=0.26p pd=1.52u as=0.61p ps=3.22u w=1u l=0.5u
.ends

.subckt nfet$241 a_242_n60# a_38_n60# a_n84_0# a_342_0# a_138_0# VSUBS
X0 a_342_0# a_242_n60# a_138_0# VSUBS nfet_03v3 ad=0.61p pd=3.22u as=0.26p ps=1.52u w=1u l=0.5u
X1 a_138_0# a_38_n60# a_n84_0# VSUBS nfet_03v3 ad=0.26p pd=1.52u as=0.61p ps=3.22u w=1u l=0.5u
.ends

.subckt nfet$254 a_242_n60# a_38_n60# a_n84_0# a_342_0# a_138_0# VSUBS
X0 a_342_0# a_242_n60# a_138_0# VSUBS nfet_03v3 ad=0.61p pd=3.22u as=0.26p ps=1.52u w=1u l=0.5u
X1 a_138_0# a_38_n60# a_n84_0# VSUBS nfet_03v3 ad=0.26p pd=1.52u as=0.61p ps=3.22u w=1u l=0.5u
.ends

.subckt nfet$261 a_242_n60# a_38_n60# a_n84_0# a_342_0# a_138_0# VSUBS
X0 a_342_0# a_242_n60# a_138_0# VSUBS nfet_03v3 ad=0.61p pd=3.22u as=0.26p ps=1.52u w=1u l=0.5u
X1 a_138_0# a_38_n60# a_n84_0# VSUBS nfet_03v3 ad=0.26p pd=1.52u as=0.61p ps=3.22u w=1u l=0.5u
.ends

.subckt pfet$239 w_n180_n88# a_n92_0# a_138_0# a_38_n136#
X0 a_138_0# a_38_n136# a_n92_0# w_n180_n88# pfet_03v3 ad=1.95p pd=7.3u as=1.95p ps=7.3u w=3u l=0.5u
.ends

.subckt pfet$253 w_n180_n88# a_n92_0# a_138_0# a_38_n136#
X0 a_138_0# a_38_n136# a_n92_0# w_n180_n88# pfet_03v3 ad=1.95p pd=7.3u as=1.95p ps=7.3u w=3u l=0.5u
.ends

.subckt nfet$243 a_242_n60# a_38_n60# a_n84_0# a_342_0# a_138_0# VSUBS
X0 a_342_0# a_242_n60# a_138_0# VSUBS nfet_03v3 ad=0.61p pd=3.22u as=0.26p ps=1.52u w=1u l=0.5u
X1 a_138_0# a_38_n60# a_n84_0# VSUBS nfet_03v3 ad=0.26p pd=1.52u as=0.61p ps=3.22u w=1u l=0.5u
.ends

.subckt nfet$273 a_38_n60# a_n84_0# a_138_0# VSUBS
X0 a_138_0# a_38_n60# a_n84_0# VSUBS nfet_03v3 ad=0.61p pd=3.22u as=0.61p ps=3.22u w=1u l=0.5u
.ends

.subckt pfet$258 w_n180_n88# a_n92_0# a_342_0# a_138_0# a_38_n136# a_242_n136#
X0 a_342_0# a_242_n136# a_138_0# w_n180_n88# pfet_03v3 ad=1.95p pd=7.3u as=0.78p ps=3.52u w=3u l=0.5u
X1 a_138_0# a_38_n136# a_n92_0# w_n180_n88# pfet_03v3 ad=0.78p pd=3.52u as=1.95p ps=7.3u w=3u l=0.5u
.ends

.subckt pfet$240 w_n180_n88# a_n92_0# a_138_0# a_38_n136#
X0 a_138_0# a_38_n136# a_n92_0# w_n180_n88# pfet_03v3 ad=1.95p pd=7.3u as=1.95p ps=7.3u w=3u l=0.5u
.ends

.subckt nfet$266 a_242_n60# a_38_n60# a_n84_0# a_342_0# a_138_0# VSUBS
X0 a_342_0# a_242_n60# a_138_0# VSUBS nfet_03v3 ad=0.61p pd=3.22u as=0.26p ps=1.52u w=1u l=0.5u
X1 a_138_0# a_38_n60# a_n84_0# VSUBS nfet_03v3 ad=0.26p pd=1.52u as=0.61p ps=3.22u w=1u l=0.5u
.ends

.subckt pfet$233 w_n180_n88# a_n92_0# a_138_0# a_38_n136#
X0 a_138_0# a_38_n136# a_n92_0# w_n180_n88# pfet_03v3 ad=1.95p pd=7.3u as=1.95p ps=7.3u w=3u l=0.5u
.ends

.subckt nfet$259 a_38_n60# a_n84_0# a_138_0# VSUBS
X0 a_138_0# a_38_n60# a_n84_0# VSUBS nfet_03v3 ad=0.61p pd=3.22u as=0.61p ps=3.22u w=1u l=0.5u
.ends

.subckt pfet$256 w_n180_n88# a_n92_0# a_342_0# a_138_0# a_38_n136# a_242_n136#
X0 a_342_0# a_242_n136# a_138_0# w_n180_n88# pfet_03v3 ad=1.95p pd=7.3u as=0.78p ps=3.52u w=3u l=0.5u
X1 a_138_0# a_38_n136# a_n92_0# w_n180_n88# pfet_03v3 ad=0.78p pd=3.52u as=1.95p ps=7.3u w=3u l=0.5u
.ends

.subckt nfet$271 a_38_n60# a_n84_0# a_138_0# VSUBS
X0 a_138_0# a_38_n60# a_n84_0# VSUBS nfet_03v3 ad=0.61p pd=3.22u as=0.61p ps=3.22u w=1u l=0.5u
.ends

.subckt nfet$264 a_38_n60# a_n84_0# a_138_0# VSUBS
X0 a_138_0# a_38_n60# a_n84_0# VSUBS nfet_03v3 ad=0.61p pd=3.22u as=0.61p ps=3.22u w=1u l=0.5u
.ends

.subckt pfet$249 w_n180_n88# a_n92_0# a_138_0# a_38_n136#
X0 a_138_0# a_38_n136# a_n92_0# w_n180_n88# pfet_03v3 ad=1.95p pd=7.3u as=1.95p ps=7.3u w=3u l=0.5u
.ends

.subckt pfet$231 w_n180_n88# a_n92_0# a_138_0# a_38_n136#
X0 a_138_0# a_38_n136# a_n92_0# w_n180_n88# pfet_03v3 ad=1.95p pd=7.3u as=1.95p ps=7.3u w=3u l=0.5u
.ends

.subckt nfet$257 a_38_n60# a_n84_0# a_138_0# VSUBS
X0 a_138_0# a_38_n60# a_n84_0# VSUBS nfet_03v3 ad=0.61p pd=3.22u as=0.61p ps=3.22u w=1u l=0.5u
.ends

.subckt pfet$254 w_n180_n88# a_n92_0# a_138_0# a_38_n136#
X0 a_138_0# a_38_n136# a_n92_0# w_n180_n88# pfet_03v3 ad=1.95p pd=7.3u as=1.95p ps=7.3u w=3u l=0.5u
.ends

.subckt nfet$262 a_242_n60# a_38_n60# a_n84_0# a_342_0# a_138_0# VSUBS
X0 a_342_0# a_242_n60# a_138_0# VSUBS nfet_03v3 ad=0.61p pd=3.22u as=0.26p ps=1.52u w=1u l=0.5u
X1 a_138_0# a_38_n60# a_n84_0# VSUBS nfet_03v3 ad=0.26p pd=1.52u as=0.61p ps=3.22u w=1u l=0.5u
.ends

.subckt pfet$247 w_n180_n88# a_n92_0# a_138_0# a_38_n136#
X0 a_138_0# a_38_n136# a_n92_0# w_n180_n88# pfet_03v3 ad=1.95p pd=7.3u as=1.95p ps=7.3u w=3u l=0.5u
.ends

.subckt pfet$230 w_n180_n88# a_n92_0# a_342_0# a_138_0# a_38_n136# a_242_n136#
X0 a_342_0# a_242_n136# a_138_0# w_n180_n88# pfet_03v3 ad=1.95p pd=7.3u as=0.78p ps=3.52u w=3u l=0.5u
X1 a_138_0# a_38_n136# a_n92_0# w_n180_n88# pfet_03v3 ad=0.78p pd=3.52u as=1.95p ps=7.3u w=3u l=0.5u
.ends

.subckt nfet$255 a_242_n60# a_38_n60# a_n84_0# a_342_0# a_138_0# VSUBS
X0 a_342_0# a_242_n60# a_138_0# VSUBS nfet_03v3 ad=0.61p pd=3.22u as=0.26p ps=1.52u w=1u l=0.5u
X1 a_138_0# a_38_n60# a_n84_0# VSUBS nfet_03v3 ad=0.26p pd=1.52u as=0.61p ps=3.22u w=1u l=0.5u
.ends

.subckt nfet$248 a_38_n60# a_n84_0# a_138_0# VSUBS
X0 a_138_0# a_38_n60# a_n84_0# VSUBS nfet_03v3 ad=0.61p pd=3.22u as=0.61p ps=3.22u w=1u l=0.5u
.ends

.subckt pfet$252 w_n180_n88# a_n92_0# a_138_0# a_38_n136#
X0 a_138_0# a_38_n136# a_n92_0# w_n180_n88# pfet_03v3 ad=1.95p pd=7.3u as=1.95p ps=7.3u w=3u l=0.5u
.ends

.subckt nfet$260 a_38_n60# a_n84_0# a_138_0# VSUBS
X0 a_138_0# a_38_n60# a_n84_0# VSUBS nfet_03v3 ad=0.61p pd=3.22u as=0.61p ps=3.22u w=1u l=0.5u
.ends

.subckt pfet$245 w_n180_n88# a_n92_0# a_138_0# a_38_n136#
X0 a_138_0# a_38_n136# a_n92_0# w_n180_n88# pfet_03v3 ad=1.95p pd=7.3u as=1.95p ps=7.3u w=3u l=0.5u
.ends

.subckt pfet$238 w_n180_n88# a_n92_0# a_138_0# a_38_n136#
X0 a_138_0# a_38_n136# a_n92_0# w_n180_n88# pfet_03v3 ad=1.95p pd=7.3u as=1.95p ps=7.3u w=3u l=0.5u
.ends

.subckt nfet$253 a_242_n60# a_38_n60# a_n84_0# a_342_0# a_138_0# VSUBS
X0 a_342_0# a_242_n60# a_138_0# VSUBS nfet_03v3 ad=0.61p pd=3.22u as=0.26p ps=1.52u w=1u l=0.5u
X1 a_138_0# a_38_n60# a_n84_0# VSUBS nfet_03v3 ad=0.26p pd=1.52u as=0.61p ps=3.22u w=1u l=0.5u
.ends

.subckt nfet$246 a_38_n60# a_n84_0# a_138_0# VSUBS
X0 a_138_0# a_38_n60# a_n84_0# VSUBS nfet_03v3 ad=0.61p pd=3.22u as=0.61p ps=3.22u w=1u l=0.5u
.ends

.subckt pfet$250 w_n180_n88# a_n92_0# a_138_0# a_38_n136#
X0 a_138_0# a_38_n136# a_n92_0# w_n180_n88# pfet_03v3 ad=1.95p pd=7.3u as=1.95p ps=7.3u w=3u l=0.5u
.ends

.subckt nfet$276 a_38_n60# a_n84_0# a_138_0# VSUBS
X0 a_138_0# a_38_n60# a_n84_0# VSUBS nfet_03v3 ad=0.61p pd=3.22u as=0.61p ps=3.22u w=1u l=0.5u
.ends

.subckt pfet$243 w_n180_n88# a_n92_0# a_138_0# a_38_n136#
X0 a_138_0# a_38_n136# a_n92_0# w_n180_n88# pfet_03v3 ad=1.95p pd=7.3u as=1.95p ps=7.3u w=3u l=0.5u
.ends

.subckt nfet$251 a_38_n60# a_n84_0# a_138_0# VSUBS
X0 a_138_0# a_38_n60# a_n84_0# VSUBS nfet_03v3 ad=0.61p pd=3.22u as=0.61p ps=3.22u w=1u l=0.5u
.ends

.subckt pfet$236 w_n180_n88# a_n92_0# a_138_0# a_38_n136#
X0 a_138_0# a_38_n136# a_n92_0# w_n180_n88# pfet_03v3 ad=1.95p pd=7.3u as=1.95p ps=7.3u w=3u l=0.5u
.ends

.subckt pfet$229 w_n180_n88# a_n92_0# a_342_0# a_138_0# a_38_n136# a_242_n136#
X0 a_342_0# a_242_n136# a_138_0# w_n180_n88# pfet_03v3 ad=1.95p pd=7.3u as=0.78p ps=3.52u w=3u l=0.5u
X1 a_138_0# a_38_n136# a_n92_0# w_n180_n88# pfet_03v3 ad=0.78p pd=3.52u as=1.95p ps=7.3u w=3u l=0.5u
.ends

.subckt pfet$259 w_n180_n88# a_n92_0# a_138_0# a_38_n136#
X0 a_138_0# a_38_n136# a_n92_0# w_n180_n88# pfet_03v3 ad=1.95p pd=7.3u as=1.95p ps=7.3u w=3u l=0.5u
.ends

.subckt nfet$274 a_38_n60# a_n84_0# a_138_0# VSUBS
X0 a_138_0# a_38_n60# a_n84_0# VSUBS nfet_03v3 ad=0.61p pd=3.22u as=0.61p ps=3.22u w=1u l=0.5u
.ends

.subckt pfet$241 w_n180_n88# a_n92_0# a_138_0# a_38_n136#
X0 a_138_0# a_38_n136# a_n92_0# w_n180_n88# pfet_03v3 ad=1.95p pd=7.3u as=1.95p ps=7.3u w=3u l=0.5u
.ends

.subckt nfet$267 a_38_n60# a_n84_0# a_138_0# VSUBS
X0 a_138_0# a_38_n60# a_n84_0# VSUBS nfet_03v3 ad=0.61p pd=3.22u as=0.61p ps=3.22u w=1u l=0.5u
.ends

.subckt pfet$234 w_n180_n88# a_n92_0# a_138_0# a_38_n136#
X0 a_138_0# a_38_n136# a_n92_0# w_n180_n88# pfet_03v3 ad=1.95p pd=7.3u as=1.95p ps=7.3u w=3u l=0.5u
.ends

.subckt nfet$272 a_38_n60# a_n84_0# a_138_0# VSUBS
X0 a_138_0# a_38_n60# a_n84_0# VSUBS nfet_03v3 ad=0.61p pd=3.22u as=0.61p ps=3.22u w=1u l=0.5u
.ends

.subckt pfet$257 w_n180_n88# a_n92_0# a_138_0# a_38_n136#
X0 a_138_0# a_38_n136# a_n92_0# w_n180_n88# pfet_03v3 ad=1.95p pd=7.3u as=1.95p ps=7.3u w=3u l=0.5u
.ends

.subckt nfet$265 a_242_n60# a_38_n60# a_n84_0# a_342_0# a_138_0# VSUBS
X0 a_342_0# a_242_n60# a_138_0# VSUBS nfet_03v3 ad=0.61p pd=3.22u as=0.26p ps=1.52u w=1u l=0.5u
X1 a_138_0# a_38_n60# a_n84_0# VSUBS nfet_03v3 ad=0.26p pd=1.52u as=0.61p ps=3.22u w=1u l=0.5u
.ends

.subckt nfet$258 a_38_n60# a_n84_0# a_138_0# VSUBS
X0 a_138_0# a_38_n60# a_n84_0# VSUBS nfet_03v3 ad=0.61p pd=3.22u as=0.61p ps=3.22u w=1u l=0.5u
.ends

.subckt nfet$270 a_242_n60# a_38_n60# a_n84_0# a_342_0# a_138_0# VSUBS
X0 a_342_0# a_242_n60# a_138_0# VSUBS nfet_03v3 ad=0.61p pd=3.22u as=0.26p ps=1.52u w=1u l=0.5u
X1 a_138_0# a_38_n60# a_n84_0# VSUBS nfet_03v3 ad=0.26p pd=1.52u as=0.61p ps=3.22u w=1u l=0.5u
.ends

.subckt pfet$255 w_n180_n88# a_n92_0# a_342_0# a_138_0# a_38_n136# a_242_n136#
X0 a_342_0# a_242_n136# a_138_0# w_n180_n88# pfet_03v3 ad=1.95p pd=7.3u as=0.78p ps=3.52u w=3u l=0.5u
X1 a_138_0# a_38_n136# a_n92_0# w_n180_n88# pfet_03v3 ad=0.78p pd=3.52u as=1.95p ps=7.3u w=3u l=0.5u
.ends

.subckt nfet$263 a_38_n60# a_n84_0# a_138_0# VSUBS
X0 a_138_0# a_38_n60# a_n84_0# VSUBS nfet_03v3 ad=0.61p pd=3.22u as=0.61p ps=3.22u w=1u l=0.5u
.ends

.subckt pfet$248 w_n180_n88# a_n92_0# a_342_0# a_138_0# a_38_n136# a_242_n136#
X0 a_342_0# a_242_n136# a_138_0# w_n180_n88# pfet_03v3 ad=1.95p pd=7.3u as=0.78p ps=3.52u w=3u l=0.5u
X1 a_138_0# a_38_n136# a_n92_0# w_n180_n88# pfet_03v3 ad=0.78p pd=3.52u as=1.95p ps=7.3u w=3u l=0.5u
.ends

.subckt nfet$256 a_242_n60# a_38_n60# a_n84_0# a_342_0# a_138_0# VSUBS
X0 a_342_0# a_242_n60# a_138_0# VSUBS nfet_03v3 ad=0.61p pd=3.22u as=0.26p ps=1.52u w=1u l=0.5u
X1 a_138_0# a_38_n60# a_n84_0# VSUBS nfet_03v3 ad=0.26p pd=1.52u as=0.61p ps=3.22u w=1u l=0.5u
.ends

.subckt pfet$246 w_n180_n88# a_n92_0# a_138_0# a_38_n136#
X0 a_138_0# a_38_n136# a_n92_0# w_n180_n88# pfet_03v3 ad=1.95p pd=7.3u as=1.95p ps=7.3u w=3u l=0.5u
.ends

.subckt nfet$277 a_38_n60# a_n84_0# a_138_0# VSUBS
X0 a_138_0# a_38_n60# a_n84_0# VSUBS nfet_03v3 ad=0.61p pd=3.22u as=0.61p ps=3.22u w=1u l=0.5u
.ends

.subckt pfet$244 w_n180_n88# a_n92_0# a_342_0# a_138_0# a_38_n136# a_242_n136#
X0 a_342_0# a_242_n136# a_138_0# w_n180_n88# pfet_03v3 ad=1.95p pd=7.3u as=0.78p ps=3.52u w=3u l=0.5u
X1 a_138_0# a_38_n136# a_n92_0# w_n180_n88# pfet_03v3 ad=0.78p pd=3.52u as=1.95p ps=7.3u w=3u l=0.5u
.ends

.subckt nfet$252 a_38_n60# a_n84_0# a_138_0# VSUBS
X0 a_138_0# a_38_n60# a_n84_0# VSUBS nfet_03v3 ad=0.61p pd=3.22u as=0.61p ps=3.22u w=1u l=0.5u
.ends

.subckt pfet$237 w_n180_n88# a_n92_0# a_342_0# a_138_0# a_38_n136# a_242_n136#
X0 a_342_0# a_242_n136# a_138_0# w_n180_n88# pfet_03v3 ad=1.95p pd=7.3u as=0.78p ps=3.52u w=3u l=0.5u
X1 a_138_0# a_38_n136# a_n92_0# w_n180_n88# pfet_03v3 ad=0.78p pd=3.52u as=1.95p ps=7.3u w=3u l=0.5u
.ends

.subckt nfet$275 a_242_n60# a_38_n60# a_n84_0# a_342_0# a_138_0# VSUBS
X0 a_342_0# a_242_n60# a_138_0# VSUBS nfet_03v3 ad=0.61p pd=3.22u as=0.26p ps=1.52u w=1u l=0.5u
X1 a_138_0# a_38_n60# a_n84_0# VSUBS nfet_03v3 ad=0.26p pd=1.52u as=0.61p ps=3.22u w=1u l=0.5u
.ends

.subckt asc_dual_psd_def_20250809$3 vdd vss pd1 pd2 pd3 pd4 pd5 pd6 pd7 pd8 pd9 fout
+ sd1 sd2 sd3 sd4 sd5 sd6 sd7 sd8 sd9 fin define
Xnfet$242_80 m1_28147_25662# m1_28991_24224# m1_30095_25658# vss nfet$242
Xnfet$245_2 m1_6275_17836# m1_7555_16080# m1_7088_18030# vss nfet$245
Xpfet$251_5 vdd vdd m1_n10308_24542# m1_n9952_24224# pfet$251
Xpfet$228_109 vdd vdd m1_10299_17343# m1_13198_17714# pfet$228
Xnfet$247_14 m1_21564_17714# vss m1_23486_19550# vss nfet$247
Xnfet$250_0 m1_n10452_25858# vss m1_n1271_25858# vss nfet$250
Xpfet$242_1 vdd m1_35837_22102# m1_35837_22102# m1_36073_22344# fout fout pfet$242
Xpfet$235_0 vdd vdd m1_n647_25662# m1_n789_25858# pfet$235
Xnfet$244_15 m1_21564_17714# m1_21564_17714# vss vss m1_24556_20470# vss nfet$244
Xnfet$269_12 m1_n10452_25858# vss m1_n5571_25662# vss nfet$269
Xpfet$232_10 vdd vdd m1_27031_17343# m1_n10452_25858# pfet$232
Xpfet$227_65 vdd vdd m1_18073_21786# m1_20126_25858# pfet$227
Xpfet$227_54 vdd vdd m1_24808_24224# m1_24188_23922# pfet$227
Xpfet$227_43 vdd vdd m1_12805_21786# pd5 pfet$227
Xnfet$245_80 m1_18824_17836# m1_19747_15778# m1_18926_16202# vss nfet$245
Xnfet$249_9 m1_n10452_25858# vss m1_27031_17343# vss nfet$249
Xpfet$227_32 vdd vdd m1_7720_24542# m1_8076_24224# pfet$227
Xpfet$227_21 vdd m1_7456_23922# m1_7720_24542# m1_7095_25858# pfet$227
Xpfet$227_10 vdd m1_8076_24224# m1_9180_25658# m1_7095_25858# pfet$227
Xnfet$268_1 m1_n1927_20274# m1_n1927_20274# vss vss m1_n2445_20470# vss nfet$268
Xnfet$241_27 m1_12875_24346# m1_12875_24346# vss vss m1_12357_24542# vss nfet$241
Xpfet$227_98 vdd m1_30095_25658# m1_30888_24542# m1_28147_25662# pfet$227
Xpfet$227_87 vdd vdd m1_28147_25662# m1_28010_25858# pfet$227
Xpfet$227_76 vdd m1_20005_23922# m1_20269_24542# m1_19644_25858# pfet$227
Xnfet$241_16 m1_24808_24224# m1_24808_24224# m1_24452_24542# m1_24452_24542# m1_24906_24542#
+ vss nfet$241
Xnfet$254_7 m1_488_21786# m1_488_21786# vss vss m1_n674_21586# vss nfet$254
Xnfet$247_6 m1_9015_17714# vss m1_12935_19550# vss nfet$247
Xnfet$261_8 m1_3015_15778# m1_3015_15778# m1_2905_18030# m1_2905_18030# m1_3141_17358#
+ vss nfet$261
Xpfet$239_7 vdd m1_32554_23922# m1_32818_24542# m1_32193_25858# pfet$239
Xpfet$253_9 vdd vdd m1_n4464_25980# m1_n4623_25487# pfet$253
Xnfet$242_81 m1_n7513_20152# vss m1_25424_24346# vss nfet$242
Xnfet$242_70 m1_21590_21786# vss m1_28010_25858# vss nfet$242
Xnfet$245_3 m1_n7513_20152# vss m1_9944_16080# vss nfet$245
Xnfet$247_15 m1_17697_15478# vss m1_22205_20152# vss nfet$247
Xpfet$251_6 vdd m1_n10308_24542# vdd m1_n9336_24346# pfet$251
Xpfet$227_110 vdd m1_11903_24542# vdd m1_12875_24346# pfet$227
Xpfet$235_10 vdd vdd m1_35071_24542# m1_32675_25947# pfet$235
Xnfet$243_0 m1_n1133_21590# m1_n1133_21590# m1_354_22513# m1_354_22513# m1_n674_21586#
+ vss nfet$243
Xpfet$235_1 vdd vdd m1_n1134_25662# m1_n1271_25858# pfet$235
Xnfet$250_1 m1_n789_25858# vss m1_n647_25662# vss nfet$250
Xpfet$228_0 vdd vdd m1_12355_15778# m1_9485_17714# pfet$228
Xnfet$244_16 m1_23486_19550# m1_23486_19550# vss vss m1_23924_20470# vss nfet$244
Xnfet$269_13 fin vss m1_n4623_25487# vss nfet$269
Xpfet$232_11 vdd vdd m1_26807_17518# m1_26217_17714# pfet$232
Xnfet$245_81 m1_13198_17714# vss m1_10299_17343# vss nfet$245
Xnfet$245_70 m1_n7513_20152# vss m1_18310_16080# vss nfet$245
Xpfet$227_99 vdd vdd m1_26705_24542# m1_24309_25858# pfet$227
Xpfet$227_88 vdd vdd m1_28634_25662# m1_28492_25858# pfet$227
Xpfet$227_77 vdd vdd m1_20269_24542# m1_20625_24224# pfet$227
Xpfet$227_66 vdd vdd m1_15461_25858# m1_11039_21786# pfet$227
Xpfet$227_55 vdd m1_24451_25662# m1_24188_23922# m1_23964_25662# pfet$227