* Extracted by KLayout with GF180MCU LVS runset on : 13/08/2025 20:30

.SUBCKT asc_swallow_counter_20250809 mc vss vdd a rst d1 d2 d3 d4 d5 d6 d7 d8 d9
M$1 vdd \$66 \$1 vdd pfet_03v3 L=0.5U W=3U AS=1.95P AD=1.95P PS=7.3U PD=7.3U
M$2 \$1 \$64 vdd vdd pfet_03v3 L=0.5U W=3U AS=1.95P AD=1.95P PS=7.3U PD=7.3U
M$3 vdd \$62 \$2 vdd pfet_03v3 L=0.5U W=3U AS=1.95P AD=1.95P PS=7.3U PD=7.3U
M$4 \$2 \$60 vdd vdd pfet_03v3 L=0.5U W=3U AS=1.95P AD=1.95P PS=7.3U PD=7.3U
M$5 \$3 \$2 vdd vdd pfet_03v3 L=0.5U W=6U AS=2.73P AD=2.73P PS=10.82U PD=10.82U
M$7 \$3 \$1 \$4 vdd pfet_03v3 L=0.5U W=6U AS=2.73P AD=2.73P PS=10.82U PD=10.82U
M$9 vdd \$4 \$5 vdd pfet_03v3 L=0.5U W=3U AS=1.95P AD=1.95P PS=7.3U PD=7.3U
M$10 \$5 \$15 vdd vdd pfet_03v3 L=0.5U W=3U AS=1.95P AD=1.95P PS=7.3U PD=7.3U
M$11 \$6 \$5 vdd vdd pfet_03v3 L=0.5U W=3U AS=1.95P AD=1.95P PS=7.3U PD=7.3U
M$12 \$7 mc vdd vdd pfet_03v3 L=0.5U W=6U AS=2.73P AD=2.73P PS=10.82U PD=10.82U
M$14 \$7 \$16 \$8 vdd pfet_03v3 L=0.5U W=6U AS=2.73P AD=2.73P PS=10.82U
+ PD=10.82U
M$16 \$116 \$115 vdd vdd pfet_03v3 L=0.5U W=3U AS=1.95P AD=1.95P PS=7.3U PD=7.3U
M$17 \$228 \$116 vdd vdd pfet_03v3 L=0.5U W=6U AS=2.73P AD=2.73P PS=10.82U
+ PD=10.82U
M$19 \$229 \$115 vdd vdd pfet_03v3 L=0.5U W=6U AS=2.73P AD=2.73P PS=10.82U
+ PD=10.82U
M$21 \$229 \$118 \$52 vdd pfet_03v3 L=0.5U W=6U AS=2.73P AD=2.73P PS=10.82U
+ PD=10.82U
M$23 \$228 \$119 \$52 vdd pfet_03v3 L=0.5U W=6U AS=2.73P AD=2.73P PS=10.82U
+ PD=10.82U
M$25 vdd \$118 \$119 vdd pfet_03v3 L=0.5U W=3U AS=1.95P AD=1.95P PS=7.3U PD=7.3U
M$26 \$121 \$120 vdd vdd pfet_03v3 L=0.5U W=3U AS=1.95P AD=1.95P PS=7.3U PD=7.3U
M$27 \$230 \$121 vdd vdd pfet_03v3 L=0.5U W=6U AS=2.73P AD=2.73P PS=10.82U
+ PD=10.82U
M$29 \$231 \$120 vdd vdd pfet_03v3 L=0.5U W=6U AS=2.73P AD=2.73P PS=10.82U
+ PD=10.82U
M$31 \$231 \$123 \$54 vdd pfet_03v3 L=0.5U W=6U AS=2.73P AD=2.73P PS=10.82U
+ PD=10.82U
M$33 \$230 \$124 \$54 vdd pfet_03v3 L=0.5U W=6U AS=2.73P AD=2.73P PS=10.82U
+ PD=10.82U
M$35 vdd \$123 \$124 vdd pfet_03v3 L=0.5U W=3U AS=1.95P AD=1.95P PS=7.3U PD=7.3U
M$36 \$126 \$125 vdd vdd pfet_03v3 L=0.5U W=3U AS=1.95P AD=1.95P PS=7.3U PD=7.3U
M$37 \$232 \$126 vdd vdd pfet_03v3 L=0.5U W=6U AS=2.73P AD=2.73P PS=10.82U
+ PD=10.82U
M$39 \$233 \$125 vdd vdd pfet_03v3 L=0.5U W=6U AS=2.73P AD=2.73P PS=10.82U
+ PD=10.82U
M$41 \$233 \$128 \$56 vdd pfet_03v3 L=0.5U W=6U AS=2.73P AD=2.73P PS=10.82U
+ PD=10.82U
M$43 \$232 \$129 \$56 vdd pfet_03v3 L=0.5U W=6U AS=2.73P AD=2.73P PS=10.82U
+ PD=10.82U
M$45 vdd \$128 \$129 vdd pfet_03v3 L=0.5U W=3U AS=1.95P AD=1.95P PS=7.3U PD=7.3U
M$46 \$131 \$130 vdd vdd pfet_03v3 L=0.5U W=3U AS=1.95P AD=1.95P PS=7.3U PD=7.3U
M$47 \$234 \$131 vdd vdd pfet_03v3 L=0.5U W=6U AS=2.73P AD=2.73P PS=10.82U
+ PD=10.82U
M$49 \$235 \$130 vdd vdd pfet_03v3 L=0.5U W=6U AS=2.73P AD=2.73P PS=10.82U
+ PD=10.82U
M$51 \$235 \$133 \$58 vdd pfet_03v3 L=0.5U W=6U AS=2.73P AD=2.73P PS=10.82U
+ PD=10.82U
M$53 \$234 \$134 \$58 vdd pfet_03v3 L=0.5U W=6U AS=2.73P AD=2.73P PS=10.82U
+ PD=10.82U
M$55 vdd \$133 \$134 vdd pfet_03v3 L=0.5U W=3U AS=1.95P AD=1.95P PS=7.3U PD=7.3U
M$56 \$136 \$135 vdd vdd pfet_03v3 L=0.5U W=3U AS=1.95P AD=1.95P PS=7.3U PD=7.3U
M$57 \$236 \$136 vdd vdd pfet_03v3 L=0.5U W=6U AS=2.73P AD=2.73P PS=10.82U
+ PD=10.82U
M$59 \$237 \$135 vdd vdd pfet_03v3 L=0.5U W=6U AS=2.73P AD=2.73P PS=10.82U
+ PD=10.82U
M$61 \$237 \$138 \$60 vdd pfet_03v3 L=0.5U W=6U AS=2.73P AD=2.73P PS=10.82U
+ PD=10.82U
M$63 \$236 \$139 \$60 vdd pfet_03v3 L=0.5U W=6U AS=2.73P AD=2.73P PS=10.82U
+ PD=10.82U
M$65 vdd \$138 \$139 vdd pfet_03v3 L=0.5U W=3U AS=1.95P AD=1.95P PS=7.3U PD=7.3U
M$66 \$141 \$140 vdd vdd pfet_03v3 L=0.5U W=3U AS=1.95P AD=1.95P PS=7.3U PD=7.3U
M$67 \$238 \$141 vdd vdd pfet_03v3 L=0.5U W=6U AS=2.73P AD=2.73P PS=10.82U
+ PD=10.82U
M$69 \$239 \$140 vdd vdd pfet_03v3 L=0.5U W=6U AS=2.73P AD=2.73P PS=10.82U
+ PD=10.82U
M$71 \$239 \$143 \$62 vdd pfet_03v3 L=0.5U W=6U AS=2.73P AD=2.73P PS=10.82U
+ PD=10.82U
M$73 \$238 \$144 \$62 vdd pfet_03v3 L=0.5U W=6U AS=2.73P AD=2.73P PS=10.82U
+ PD=10.82U
M$75 vdd \$143 \$144 vdd pfet_03v3 L=0.5U W=3U AS=1.95P AD=1.95P PS=7.3U PD=7.3U
M$76 \$146 \$145 vdd vdd pfet_03v3 L=0.5U W=3U AS=1.95P AD=1.95P PS=7.3U PD=7.3U
M$77 \$240 \$146 vdd vdd pfet_03v3 L=0.5U W=6U AS=2.73P AD=2.73P PS=10.82U
+ PD=10.82U
M$79 \$241 \$145 vdd vdd pfet_03v3 L=0.5U W=6U AS=2.73P AD=2.73P PS=10.82U
+ PD=10.82U
M$81 \$241 \$148 \$64 vdd pfet_03v3 L=0.5U W=6U AS=2.73P AD=2.73P PS=10.82U
+ PD=10.82U
M$83 \$240 \$149 \$64 vdd pfet_03v3 L=0.5U W=6U AS=2.73P AD=2.73P PS=10.82U
+ PD=10.82U
M$85 vdd \$148 \$149 vdd pfet_03v3 L=0.5U W=3U AS=1.95P AD=1.95P PS=7.3U PD=7.3U
M$86 \$151 \$150 vdd vdd pfet_03v3 L=0.5U W=3U AS=1.95P AD=1.95P PS=7.3U PD=7.3U
M$87 \$242 \$151 vdd vdd pfet_03v3 L=0.5U W=6U AS=2.73P AD=2.73P PS=10.82U
+ PD=10.82U
M$89 \$243 \$150 vdd vdd pfet_03v3 L=0.5U W=6U AS=2.73P AD=2.73P PS=10.82U
+ PD=10.82U
M$91 \$243 \$153 \$66 vdd pfet_03v3 L=0.5U W=6U AS=2.73P AD=2.73P PS=10.82U
+ PD=10.82U
M$93 \$242 \$154 \$66 vdd pfet_03v3 L=0.5U W=6U AS=2.73P AD=2.73P PS=10.82U
+ PD=10.82U
M$95 vdd \$153 \$154 vdd pfet_03v3 L=0.5U W=3U AS=1.95P AD=1.95P PS=7.3U PD=7.3U
M$96 \$156 \$155 vdd vdd pfet_03v3 L=0.5U W=3U AS=1.95P AD=1.95P PS=7.3U PD=7.3U
M$97 \$244 \$156 vdd vdd pfet_03v3 L=0.5U W=6U AS=2.73P AD=2.73P PS=10.82U
+ PD=10.82U
M$99 \$245 \$155 vdd vdd pfet_03v3 L=0.5U W=6U AS=2.73P AD=2.73P PS=10.82U
+ PD=10.82U
M$101 \$245 \$158 \$68 vdd pfet_03v3 L=0.5U W=6U AS=2.73P AD=2.73P PS=10.82U
+ PD=10.82U
M$103 \$244 \$159 \$68 vdd pfet_03v3 L=0.5U W=6U AS=2.73P AD=2.73P PS=10.82U
+ PD=10.82U
M$105 vdd \$158 \$159 vdd pfet_03v3 L=0.5U W=3U AS=1.95P AD=1.95P PS=7.3U
+ PD=7.3U
M$106 vdd \$58 \$51 vdd pfet_03v3 L=0.5U W=3U AS=1.95P AD=1.95P PS=7.3U PD=7.3U
M$107 \$51 \$56 vdd vdd pfet_03v3 L=0.5U W=3U AS=1.95P AD=1.95P PS=7.3U PD=7.3U
M$108 vdd \$54 \$160 vdd pfet_03v3 L=0.5U W=3U AS=1.95P AD=1.95P PS=7.3U PD=7.3U
M$109 \$160 \$52 vdd vdd pfet_03v3 L=0.5U W=3U AS=1.95P AD=1.95P PS=7.3U PD=7.3U
M$110 \$246 \$160 vdd vdd pfet_03v3 L=0.5U W=6U AS=2.73P AD=2.73P PS=10.82U
+ PD=10.82U
M$112 \$246 \$51 \$15 vdd pfet_03v3 L=0.5U W=6U AS=2.73P AD=2.73P PS=10.82U
+ PD=10.82U
M$114 vdd \$68 \$161 vdd pfet_03v3 L=0.5U W=3U AS=1.95P AD=1.95P PS=7.3U PD=7.3U
M$115 \$161 \$6 vdd vdd pfet_03v3 L=0.5U W=3U AS=1.95P AD=1.95P PS=7.3U PD=7.3U
M$116 \$16 \$161 vdd vdd pfet_03v3 L=0.5U W=3U AS=1.95P AD=1.95P PS=7.3U PD=7.3U
M$117 \$247 rst vdd vdd pfet_03v3 L=0.5U W=6U AS=2.73P AD=2.73P PS=10.82U
+ PD=10.82U
M$119 \$247 \$8 mc vdd pfet_03v3 L=0.5U W=6U AS=2.73P AD=2.73P PS=10.82U
+ PD=10.82U
M$121 \$646 \$418 vdd vdd pfet_03v3 L=0.5U W=3U AS=1.95P AD=1.95P PS=7.3U
+ PD=7.3U
M$122 \$418 a vdd vdd pfet_03v3 L=0.5U W=3U AS=1.95P AD=1.95P PS=7.3U PD=7.3U
M$123 \$790 \$475 vdd vdd pfet_03v3 L=0.5U W=3U AS=1.95P AD=1.95P PS=7.3U
+ PD=7.3U
M$124 \$420 \$418 \$419 vdd pfet_03v3 L=0.5U W=3U AS=1.95P AD=1.95P PS=7.3U
+ PD=7.3U
M$125 vdd \$473 \$420 vdd pfet_03v3 L=0.5U W=3U AS=1.95P AD=1.95P PS=7.3U
+ PD=7.3U
M$126 \$419 \$646 \$790 vdd pfet_03v3 L=0.5U W=3U AS=1.95P AD=1.95P PS=7.3U
+ PD=7.3U
M$127 \$473 \$419 vdd vdd pfet_03v3 L=0.5U W=3U AS=1.95P AD=1.95P PS=7.3U
+ PD=7.3U
M$128 \$420 \$421 vdd vdd pfet_03v3 L=0.5U W=3U AS=1.95P AD=1.95P PS=7.3U
+ PD=7.3U
M$129 \$422 \$418 \$473 vdd pfet_03v3 L=0.5U W=3U AS=1.95P AD=1.95P PS=7.3U
+ PD=7.3U
M$130 vdd rst \$421 vdd pfet_03v3 L=0.5U W=3U AS=1.95P AD=1.95P PS=7.3U PD=7.3U
M$131 vdd \$422 \$475 vdd pfet_03v3 L=0.5U W=3U AS=1.95P AD=1.95P PS=7.3U
+ PD=7.3U
M$132 \$423 \$646 \$422 vdd pfet_03v3 L=0.5U W=3U AS=1.95P AD=1.95P PS=7.3U
+ PD=7.3U
M$133 vdd \$475 \$423 vdd pfet_03v3 L=0.5U W=3U AS=1.95P AD=1.95P PS=7.3U
+ PD=7.3U
M$134 \$475 \$421 vdd vdd pfet_03v3 L=0.5U W=3U AS=1.95P AD=1.95P PS=7.3U
+ PD=7.3U
M$135 \$118 \$475 vdd vdd pfet_03v3 L=0.5U W=3U AS=1.95P AD=1.95P PS=7.3U
+ PD=7.3U
M$136 \$115 d1 vdd vdd pfet_03v3 L=0.5U W=3U AS=1.95P AD=1.95P PS=7.3U PD=7.3U
M$137 \$775 \$424 vdd vdd pfet_03v3 L=0.5U W=3U AS=1.95P AD=1.95P PS=7.3U
+ PD=7.3U
M$138 \$424 \$118 vdd vdd pfet_03v3 L=0.5U W=3U AS=1.95P AD=1.95P PS=7.3U
+ PD=7.3U
M$139 \$792 \$477 vdd vdd pfet_03v3 L=0.5U W=3U AS=1.95P AD=1.95P PS=7.3U
+ PD=7.3U
M$140 \$426 \$424 \$425 vdd pfet_03v3 L=0.5U W=3U AS=1.95P AD=1.95P PS=7.3U
+ PD=7.3U
M$141 \$425 \$775 \$792 vdd pfet_03v3 L=0.5U W=3U AS=1.95P AD=1.95P PS=7.3U
+ PD=7.3U
M$142 vdd \$476 \$426 vdd pfet_03v3 L=0.5U W=3U AS=1.95P AD=1.95P PS=7.3U
+ PD=7.3U
M$143 \$476 \$425 vdd vdd pfet_03v3 L=0.5U W=3U AS=1.95P AD=1.95P PS=7.3U
+ PD=7.3U
M$144 \$426 \$427 vdd vdd pfet_03v3 L=0.5U W=3U AS=1.95P AD=1.95P PS=7.3U
+ PD=7.3U
M$145 \$428 \$424 \$476 vdd pfet_03v3 L=0.5U W=3U AS=1.95P AD=1.95P PS=7.3U
+ PD=7.3U
M$146 vdd rst \$427 vdd pfet_03v3 L=0.5U W=3U AS=1.95P AD=1.95P PS=7.3U PD=7.3U
M$147 vdd \$428 \$477 vdd pfet_03v3 L=0.5U W=3U AS=1.95P AD=1.95P PS=7.3U
+ PD=7.3U
M$148 \$429 \$775 \$428 vdd pfet_03v3 L=0.5U W=3U AS=1.95P AD=1.95P PS=7.3U
+ PD=7.3U
M$149 vdd \$477 \$429 vdd pfet_03v3 L=0.5U W=3U AS=1.95P AD=1.95P PS=7.3U
+ PD=7.3U
M$150 \$477 \$427 vdd vdd pfet_03v3 L=0.5U W=3U AS=1.95P AD=1.95P PS=7.3U
+ PD=7.3U
M$151 \$120 d2 vdd vdd pfet_03v3 L=0.5U W=3U AS=1.95P AD=1.95P PS=7.3U PD=7.3U
M$152 \$123 \$477 vdd vdd pfet_03v3 L=0.5U W=3U AS=1.95P AD=1.95P PS=7.3U
+ PD=7.3U
M$153 \$647 \$430 vdd vdd pfet_03v3 L=0.5U W=3U AS=1.95P AD=1.95P PS=7.3U
+ PD=7.3U
M$154 \$430 \$123 vdd vdd pfet_03v3 L=0.5U W=3U AS=1.95P AD=1.95P PS=7.3U
+ PD=7.3U
M$155 \$794 \$479 vdd vdd pfet_03v3 L=0.5U W=3U AS=1.95P AD=1.95P PS=7.3U
+ PD=7.3U
M$156 \$432 \$430 \$431 vdd pfet_03v3 L=0.5U W=3U AS=1.95P AD=1.95P PS=7.3U
+ PD=7.3U
M$157 vdd \$478 \$432 vdd pfet_03v3 L=0.5U W=3U AS=1.95P AD=1.95P PS=7.3U
+ PD=7.3U
M$158 \$431 \$647 \$794 vdd pfet_03v3 L=0.5U W=3U AS=1.95P AD=1.95P PS=7.3U
+ PD=7.3U
M$159 \$478 \$431 vdd vdd pfet_03v3 L=0.5U W=3U AS=1.95P AD=1.95P PS=7.3U
+ PD=7.3U
M$160 \$432 \$433 vdd vdd pfet_03v3 L=0.5U W=3U AS=1.95P AD=1.95P PS=7.3U
+ PD=7.3U
M$161 \$434 \$430 \$478 vdd pfet_03v3 L=0.5U W=3U AS=1.95P AD=1.95P PS=7.3U
+ PD=7.3U
M$162 vdd rst \$433 vdd pfet_03v3 L=0.5U W=3U AS=1.95P AD=1.95P PS=7.3U PD=7.3U
M$163 vdd \$434 \$479 vdd pfet_03v3 L=0.5U W=3U AS=1.95P AD=1.95P PS=7.3U
+ PD=7.3U
M$164 \$435 \$647 \$434 vdd pfet_03v3 L=0.5U W=3U AS=1.95P AD=1.95P PS=7.3U
+ PD=7.3U
M$165 vdd \$479 \$435 vdd pfet_03v3 L=0.5U W=3U AS=1.95P AD=1.95P PS=7.3U
+ PD=7.3U
M$166 \$479 \$433 vdd vdd pfet_03v3 L=0.5U W=3U AS=1.95P AD=1.95P PS=7.3U
+ PD=7.3U
M$167 \$125 d3 vdd vdd pfet_03v3 L=0.5U W=3U AS=1.95P AD=1.95P PS=7.3U PD=7.3U
M$168 \$128 \$479 vdd vdd pfet_03v3 L=0.5U W=3U AS=1.95P AD=1.95P PS=7.3U
+ PD=7.3U
M$169 \$778 \$436 vdd vdd pfet_03v3 L=0.5U W=3U AS=1.95P AD=1.95P PS=7.3U
+ PD=7.3U
M$170 \$436 \$128 vdd vdd pfet_03v3 L=0.5U W=3U AS=1.95P AD=1.95P PS=7.3U
+ PD=7.3U
M$171 \$796 \$481 vdd vdd pfet_03v3 L=0.5U W=3U AS=1.95P AD=1.95P PS=7.3U
+ PD=7.3U
M$172 \$438 \$436 \$437 vdd pfet_03v3 L=0.5U W=3U AS=1.95P AD=1.95P PS=7.3U
+ PD=7.3U
M$173 vdd \$480 \$438 vdd pfet_03v3 L=0.5U W=3U AS=1.95P AD=1.95P PS=7.3U
+ PD=7.3U
M$174 \$437 \$778 \$796 vdd pfet_03v3 L=0.5U W=3U AS=1.95P AD=1.95P PS=7.3U
+ PD=7.3U
M$175 \$480 \$437 vdd vdd pfet_03v3 L=0.5U W=3U AS=1.95P AD=1.95P PS=7.3U
+ PD=7.3U
M$176 \$438 \$439 vdd vdd pfet_03v3 L=0.5U W=3U AS=1.95P AD=1.95P PS=7.3U
+ PD=7.3U
M$177 \$440 \$436 \$480 vdd pfet_03v3 L=0.5U W=3U AS=1.95P AD=1.95P PS=7.3U
+ PD=7.3U
M$178 vdd rst \$439 vdd pfet_03v3 L=0.5U W=3U AS=1.95P AD=1.95P PS=7.3U PD=7.3U
M$179 vdd \$440 \$481 vdd pfet_03v3 L=0.5U W=3U AS=1.95P AD=1.95P PS=7.3U
+ PD=7.3U
M$180 \$441 \$778 \$440 vdd pfet_03v3 L=0.5U W=3U AS=1.95P AD=1.95P PS=7.3U
+ PD=7.3U
M$181 vdd \$481 \$441 vdd pfet_03v3 L=0.5U W=3U AS=1.95P AD=1.95P PS=7.3U
+ PD=7.3U
M$182 \$481 \$439 vdd vdd pfet_03v3 L=0.5U W=3U AS=1.95P AD=1.95P PS=7.3U
+ PD=7.3U
M$183 \$130 d4 vdd vdd pfet_03v3 L=0.5U W=3U AS=1.95P AD=1.95P PS=7.3U PD=7.3U
M$184 \$133 \$481 vdd vdd pfet_03v3 L=0.5U W=3U AS=1.95P AD=1.95P PS=7.3U
+ PD=7.3U
M$185 \$780 \$442 vdd vdd pfet_03v3 L=0.5U W=3U AS=1.95P AD=1.95P PS=7.3U
+ PD=7.3U
M$186 \$442 \$133 vdd vdd pfet_03v3 L=0.5U W=3U AS=1.95P AD=1.95P PS=7.3U
+ PD=7.3U
M$187 \$798 \$483 vdd vdd pfet_03v3 L=0.5U W=3U AS=1.95P AD=1.95P PS=7.3U
+ PD=7.3U
M$188 \$444 \$442 \$443 vdd pfet_03v3 L=0.5U W=3U AS=1.95P AD=1.95P PS=7.3U
+ PD=7.3U
M$189 vdd \$482 \$444 vdd pfet_03v3 L=0.5U W=3U AS=1.95P AD=1.95P PS=7.3U
+ PD=7.3U
M$190 \$443 \$780 \$798 vdd pfet_03v3 L=0.5U W=3U AS=1.95P AD=1.95P PS=7.3U
+ PD=7.3U
M$191 \$482 \$443 vdd vdd pfet_03v3 L=0.5U W=3U AS=1.95P AD=1.95P PS=7.3U
+ PD=7.3U
M$192 \$444 \$445 vdd vdd pfet_03v3 L=0.5U W=3U AS=1.95P AD=1.95P PS=7.3U
+ PD=7.3U
M$193 \$446 \$442 \$482 vdd pfet_03v3 L=0.5U W=3U AS=1.95P AD=1.95P PS=7.3U
+ PD=7.3U
M$194 vdd rst \$445 vdd pfet_03v3 L=0.5U W=3U AS=1.95P AD=1.95P PS=7.3U PD=7.3U
M$195 vdd \$446 \$483 vdd pfet_03v3 L=0.5U W=3U AS=1.95P AD=1.95P PS=7.3U
+ PD=7.3U
M$196 \$447 \$780 \$446 vdd pfet_03v3 L=0.5U W=3U AS=1.95P AD=1.95P PS=7.3U
+ PD=7.3U
M$197 vdd \$483 \$447 vdd pfet_03v3 L=0.5U W=3U AS=1.95P AD=1.95P PS=7.3U
+ PD=7.3U
M$198 \$483 \$445 vdd vdd pfet_03v3 L=0.5U W=3U AS=1.95P AD=1.95P PS=7.3U
+ PD=7.3U
M$199 \$138 \$483 vdd vdd pfet_03v3 L=0.5U W=3U AS=1.95P AD=1.95P PS=7.3U
+ PD=7.3U
M$200 \$135 d5 vdd vdd pfet_03v3 L=0.5U W=3U AS=1.95P AD=1.95P PS=7.3U PD=7.3U
M$201 \$782 \$448 vdd vdd pfet_03v3 L=0.5U W=3U AS=1.95P AD=1.95P PS=7.3U
+ PD=7.3U
M$202 \$448 \$138 vdd vdd pfet_03v3 L=0.5U W=3U AS=1.95P AD=1.95P PS=7.3U
+ PD=7.3U
M$203 \$800 \$485 vdd vdd pfet_03v3 L=0.5U W=3U AS=1.95P AD=1.95P PS=7.3U
+ PD=7.3U
M$204 \$450 \$448 \$449 vdd pfet_03v3 L=0.5U W=3U AS=1.95P AD=1.95P PS=7.3U
+ PD=7.3U
M$205 \$449 \$782 \$800 vdd pfet_03v3 L=0.5U W=3U AS=1.95P AD=1.95P PS=7.3U
+ PD=7.3U
M$206 vdd \$484 \$450 vdd pfet_03v3 L=0.5U W=3U AS=1.95P AD=1.95P PS=7.3U
+ PD=7.3U
M$207 \$484 \$449 vdd vdd pfet_03v3 L=0.5U W=3U AS=1.95P AD=1.95P PS=7.3U
+ PD=7.3U
M$208 \$450 \$451 vdd vdd pfet_03v3 L=0.5U W=3U AS=1.95P AD=1.95P PS=7.3U
+ PD=7.3U
M$209 \$452 \$448 \$484 vdd pfet_03v3 L=0.5U W=3U AS=1.95P AD=1.95P PS=7.3U
+ PD=7.3U
M$210 vdd rst \$451 vdd pfet_03v3 L=0.5U W=3U AS=1.95P AD=1.95P PS=7.3U PD=7.3U
M$211 vdd \$452 \$485 vdd pfet_03v3 L=0.5U W=3U AS=1.95P AD=1.95P PS=7.3U
+ PD=7.3U
M$212 \$453 \$782 \$452 vdd pfet_03v3 L=0.5U W=3U AS=1.95P AD=1.95P PS=7.3U
+ PD=7.3U
M$213 vdd \$485 \$453 vdd pfet_03v3 L=0.5U W=3U AS=1.95P AD=1.95P PS=7.3U
+ PD=7.3U
M$214 \$485 \$451 vdd vdd pfet_03v3 L=0.5U W=3U AS=1.95P AD=1.95P PS=7.3U
+ PD=7.3U
M$215 \$143 \$485 vdd vdd pfet_03v3 L=0.5U W=3U AS=1.95P AD=1.95P PS=7.3U
+ PD=7.3U
M$216 \$140 d6 vdd vdd pfet_03v3 L=0.5U W=3U AS=1.95P AD=1.95P PS=7.3U PD=7.3U
M$217 \$784 \$454 vdd vdd pfet_03v3 L=0.5U W=3U AS=1.95P AD=1.95P PS=7.3U
+ PD=7.3U
M$218 \$454 \$143 vdd vdd pfet_03v3 L=0.5U W=3U AS=1.95P AD=1.95P PS=7.3U
+ PD=7.3U
M$219 \$802 \$487 vdd vdd pfet_03v3 L=0.5U W=3U AS=1.95P AD=1.95P PS=7.3U
+ PD=7.3U
M$220 \$456 \$454 \$455 vdd pfet_03v3 L=0.5U W=3U AS=1.95P AD=1.95P PS=7.3U
+ PD=7.3U
M$221 \$455 \$784 \$802 vdd pfet_03v3 L=0.5U W=3U AS=1.95P AD=1.95P PS=7.3U
+ PD=7.3U
M$222 vdd \$486 \$456 vdd pfet_03v3 L=0.5U W=3U AS=1.95P AD=1.95P PS=7.3U
+ PD=7.3U
M$223 \$486 \$455 vdd vdd pfet_03v3 L=0.5U W=3U AS=1.95P AD=1.95P PS=7.3U
+ PD=7.3U
M$224 \$456 \$457 vdd vdd pfet_03v3 L=0.5U W=3U AS=1.95P AD=1.95P PS=7.3U
+ PD=7.3U
M$225 \$458 \$454 \$486 vdd pfet_03v3 L=0.5U W=3U AS=1.95P AD=1.95P PS=7.3U
+ PD=7.3U
M$226 vdd rst \$457 vdd pfet_03v3 L=0.5U W=3U AS=1.95P AD=1.95P PS=7.3U PD=7.3U
M$227 vdd \$458 \$487 vdd pfet_03v3 L=0.5U W=3U AS=1.95P AD=1.95P PS=7.3U
+ PD=7.3U
M$228 \$459 \$784 \$458 vdd pfet_03v3 L=0.5U W=3U AS=1.95P AD=1.95P PS=7.3U
+ PD=7.3U
M$229 vdd \$487 \$459 vdd pfet_03v3 L=0.5U W=3U AS=1.95P AD=1.95P PS=7.3U
+ PD=7.3U
M$230 \$487 \$457 vdd vdd pfet_03v3 L=0.5U W=3U AS=1.95P AD=1.95P PS=7.3U
+ PD=7.3U
M$231 \$145 d7 vdd vdd pfet_03v3 L=0.5U W=3U AS=1.95P AD=1.95P PS=7.3U PD=7.3U
M$232 \$148 \$487 vdd vdd pfet_03v3 L=0.5U W=3U AS=1.95P AD=1.95P PS=7.3U
+ PD=7.3U
M$233 \$786 \$460 vdd vdd pfet_03v3 L=0.5U W=3U AS=1.95P AD=1.95P PS=7.3U
+ PD=7.3U
M$234 \$460 \$148 vdd vdd pfet_03v3 L=0.5U W=3U AS=1.95P AD=1.95P PS=7.3U
+ PD=7.3U
M$235 \$804 \$489 vdd vdd pfet_03v3 L=0.5U W=3U AS=1.95P AD=1.95P PS=7.3U
+ PD=7.3U
M$236 \$462 \$460 \$461 vdd pfet_03v3 L=0.5U W=3U AS=1.95P AD=1.95P PS=7.3U
+ PD=7.3U
M$237 \$461 \$786 \$804 vdd pfet_03v3 L=0.5U W=3U AS=1.95P AD=1.95P PS=7.3U
+ PD=7.3U
M$238 vdd \$488 \$462 vdd pfet_03v3 L=0.5U W=3U AS=1.95P AD=1.95P PS=7.3U
+ PD=7.3U
M$239 \$488 \$461 vdd vdd pfet_03v3 L=0.5U W=3U AS=1.95P AD=1.95P PS=7.3U
+ PD=7.3U
M$240 \$462 \$463 vdd vdd pfet_03v3 L=0.5U W=3U AS=1.95P AD=1.95P PS=7.3U
+ PD=7.3U
M$241 \$464 \$460 \$488 vdd pfet_03v3 L=0.5U W=3U AS=1.95P AD=1.95P PS=7.3U
+ PD=7.3U
M$242 vdd rst \$463 vdd pfet_03v3 L=0.5U W=3U AS=1.95P AD=1.95P PS=7.3U PD=7.3U
M$243 vdd \$464 \$489 vdd pfet_03v3 L=0.5U W=3U AS=1.95P AD=1.95P PS=7.3U
+ PD=7.3U
M$244 \$465 \$786 \$464 vdd pfet_03v3 L=0.5U W=3U AS=1.95P AD=1.95P PS=7.3U
+ PD=7.3U
M$245 vdd \$489 \$465 vdd pfet_03v3 L=0.5U W=3U AS=1.95P AD=1.95P PS=7.3U
+ PD=7.3U
M$246 \$489 \$463 vdd vdd pfet_03v3 L=0.5U W=3U AS=1.95P AD=1.95P PS=7.3U
+ PD=7.3U
M$247 \$153 \$489 vdd vdd pfet_03v3 L=0.5U W=3U AS=1.95P AD=1.95P PS=7.3U
+ PD=7.3U
M$248 \$150 d8 vdd vdd pfet_03v3 L=0.5U W=3U AS=1.95P AD=1.95P PS=7.3U PD=7.3U
M$249 \$788 \$466 vdd vdd pfet_03v3 L=0.5U W=3U AS=1.95P AD=1.95P PS=7.3U
+ PD=7.3U
M$250 \$466 \$153 vdd vdd pfet_03v3 L=0.5U W=3U AS=1.95P AD=1.95P PS=7.3U
+ PD=7.3U
M$251 \$806 \$491 vdd vdd pfet_03v3 L=0.5U W=3U AS=1.95P AD=1.95P PS=7.3U
+ PD=7.3U
M$252 \$468 \$466 \$467 vdd pfet_03v3 L=0.5U W=3U AS=1.95P AD=1.95P PS=7.3U
+ PD=7.3U
M$253 \$467 \$788 \$806 vdd pfet_03v3 L=0.5U W=3U AS=1.95P AD=1.95P PS=7.3U
+ PD=7.3U
M$254 vdd \$490 \$468 vdd pfet_03v3 L=0.5U W=3U AS=1.95P AD=1.95P PS=7.3U
+ PD=7.3U
M$255 \$490 \$467 vdd vdd pfet_03v3 L=0.5U W=3U AS=1.95P AD=1.95P PS=7.3U
+ PD=7.3U
M$256 \$468 \$469 vdd vdd pfet_03v3 L=0.5U W=3U AS=1.95P AD=1.95P PS=7.3U
+ PD=7.3U
M$257 \$470 \$466 \$490 vdd pfet_03v3 L=0.5U W=3U AS=1.95P AD=1.95P PS=7.3U
+ PD=7.3U
M$258 vdd rst \$469 vdd pfet_03v3 L=0.5U W=3U AS=1.95P AD=1.95P PS=7.3U PD=7.3U
M$259 vdd \$470 \$491 vdd pfet_03v3 L=0.5U W=3U AS=1.95P AD=1.95P PS=7.3U
+ PD=7.3U
M$260 \$471 \$788 \$470 vdd pfet_03v3 L=0.5U W=3U AS=1.95P AD=1.95P PS=7.3U
+ PD=7.3U
M$261 vdd \$491 \$471 vdd pfet_03v3 L=0.5U W=3U AS=1.95P AD=1.95P PS=7.3U
+ PD=7.3U
M$262 \$491 \$469 vdd vdd pfet_03v3 L=0.5U W=3U AS=1.95P AD=1.95P PS=7.3U
+ PD=7.3U
M$263 \$158 \$491 vdd vdd pfet_03v3 L=0.5U W=3U AS=1.95P AD=1.95P PS=7.3U
+ PD=7.3U
M$264 \$155 d9 vdd vdd pfet_03v3 L=0.5U W=3U AS=1.95P AD=1.95P PS=7.3U PD=7.3U
M$265 \$31 \$66 vss vss nfet_03v3 L=0.5U W=2U AS=0.87P AD=0.87P PS=4.74U
+ PD=4.74U
M$267 \$31 \$64 \$1 vss nfet_03v3 L=0.5U W=2U AS=0.87P AD=0.87P PS=4.74U
+ PD=4.74U
M$269 \$32 \$62 vss vss nfet_03v3 L=0.5U W=2U AS=0.87P AD=0.87P PS=4.74U
+ PD=4.74U
M$271 \$32 \$60 \$2 vss nfet_03v3 L=0.5U W=2U AS=0.87P AD=0.87P PS=4.74U
+ PD=4.74U
M$273 vss \$2 \$4 vss nfet_03v3 L=0.5U W=1U AS=0.61P AD=0.61P PS=3.22U PD=3.22U
M$274 \$4 \$1 vss vss nfet_03v3 L=0.5U W=1U AS=0.61P AD=0.61P PS=3.22U PD=3.22U
M$275 \$33 \$4 vss vss nfet_03v3 L=0.5U W=2U AS=0.87P AD=0.87P PS=4.74U PD=4.74U
M$277 \$33 \$15 \$5 vss nfet_03v3 L=0.5U W=2U AS=0.87P AD=0.87P PS=4.74U
+ PD=4.74U
M$279 \$6 \$5 vss vss nfet_03v3 L=0.5U W=1U AS=0.61P AD=0.61P PS=3.22U PD=3.22U
M$280 vss mc \$8 vss nfet_03v3 L=0.5U W=1U AS=0.61P AD=0.61P PS=3.22U PD=3.22U
M$281 \$8 \$16 vss vss nfet_03v3 L=0.5U W=1U AS=0.61P AD=0.61P PS=3.22U PD=3.22U
M$282 \$116 \$115 vss vss nfet_03v3 L=0.5U W=1U AS=0.61P AD=0.61P PS=3.22U
+ PD=3.22U
M$283 \$53 \$116 \$52 vss nfet_03v3 L=0.5U W=2U AS=0.87P AD=0.87P PS=4.74U
+ PD=4.74U
M$285 \$117 \$115 \$52 vss nfet_03v3 L=0.5U W=2U AS=0.87P AD=0.87P PS=4.74U
+ PD=4.74U
M$287 \$53 \$118 vss vss nfet_03v3 L=0.5U W=2U AS=0.87P AD=0.87P PS=4.74U
+ PD=4.74U
M$289 \$117 \$119 vss vss nfet_03v3 L=0.5U W=2U AS=0.87P AD=0.87P PS=4.74U
+ PD=4.74U
M$291 vss \$118 \$119 vss nfet_03v3 L=0.5U W=1U AS=0.61P AD=0.61P PS=3.22U
+ PD=3.22U
M$292 \$121 \$120 vss vss nfet_03v3 L=0.5U W=1U AS=0.61P AD=0.61P PS=3.22U
+ PD=3.22U
M$293 \$55 \$121 \$54 vss nfet_03v3 L=0.5U W=2U AS=0.87P AD=0.87P PS=4.74U
+ PD=4.74U
M$295 \$122 \$120 \$54 vss nfet_03v3 L=0.5U W=2U AS=0.87P AD=0.87P PS=4.74U
+ PD=4.74U
M$297 \$55 \$123 vss vss nfet_03v3 L=0.5U W=2U AS=0.87P AD=0.87P PS=4.74U
+ PD=4.74U
M$299 \$122 \$124 vss vss nfet_03v3 L=0.5U W=2U AS=0.87P AD=0.87P PS=4.74U
+ PD=4.74U
M$301 vss \$123 \$124 vss nfet_03v3 L=0.5U W=1U AS=0.61P AD=0.61P PS=3.22U
+ PD=3.22U
M$302 \$126 \$125 vss vss nfet_03v3 L=0.5U W=1U AS=0.61P AD=0.61P PS=3.22U
+ PD=3.22U
M$303 \$57 \$126 \$56 vss nfet_03v3 L=0.5U W=2U AS=0.87P AD=0.87P PS=4.74U
+ PD=4.74U
M$305 \$127 \$125 \$56 vss nfet_03v3 L=0.5U W=2U AS=0.87P AD=0.87P PS=4.74U
+ PD=4.74U
M$307 \$57 \$128 vss vss nfet_03v3 L=0.5U W=2U AS=0.87P AD=0.87P PS=4.74U
+ PD=4.74U
M$309 \$127 \$129 vss vss nfet_03v3 L=0.5U W=2U AS=0.87P AD=0.87P PS=4.74U
+ PD=4.74U
M$311 vss \$128 \$129 vss nfet_03v3 L=0.5U W=1U AS=0.61P AD=0.61P PS=3.22U
+ PD=3.22U
M$312 \$131 \$130 vss vss nfet_03v3 L=0.5U W=1U AS=0.61P AD=0.61P PS=3.22U
+ PD=3.22U
M$313 \$59 \$131 \$58 vss nfet_03v3 L=0.5U W=2U AS=0.87P AD=0.87P PS=4.74U
+ PD=4.74U
M$315 \$132 \$130 \$58 vss nfet_03v3 L=0.5U W=2U AS=0.87P AD=0.87P PS=4.74U
+ PD=4.74U
M$317 \$59 \$133 vss vss nfet_03v3 L=0.5U W=2U AS=0.87P AD=0.87P PS=4.74U
+ PD=4.74U
M$319 \$132 \$134 vss vss nfet_03v3 L=0.5U W=2U AS=0.87P AD=0.87P PS=4.74U
+ PD=4.74U
M$321 vss \$133 \$134 vss nfet_03v3 L=0.5U W=1U AS=0.61P AD=0.61P PS=3.22U
+ PD=3.22U
M$322 \$136 \$135 vss vss nfet_03v3 L=0.5U W=1U AS=0.61P AD=0.61P PS=3.22U
+ PD=3.22U
M$323 \$61 \$136 \$60 vss nfet_03v3 L=0.5U W=2U AS=0.87P AD=0.87P PS=4.74U
+ PD=4.74U
M$325 \$137 \$135 \$60 vss nfet_03v3 L=0.5U W=2U AS=0.87P AD=0.87P PS=4.74U
+ PD=4.74U
M$327 \$61 \$138 vss vss nfet_03v3 L=0.5U W=2U AS=0.87P AD=0.87P PS=4.74U
+ PD=4.74U
M$329 \$137 \$139 vss vss nfet_03v3 L=0.5U W=2U AS=0.87P AD=0.87P PS=4.74U
+ PD=4.74U
M$331 vss \$138 \$139 vss nfet_03v3 L=0.5U W=1U AS=0.61P AD=0.61P PS=3.22U
+ PD=3.22U
M$332 \$141 \$140 vss vss nfet_03v3 L=0.5U W=1U AS=0.61P AD=0.61P PS=3.22U
+ PD=3.22U
M$333 \$63 \$141 \$62 vss nfet_03v3 L=0.5U W=2U AS=0.87P AD=0.87P PS=4.74U
+ PD=4.74U
M$335 \$142 \$140 \$62 vss nfet_03v3 L=0.5U W=2U AS=0.87P AD=0.87P PS=4.74U
+ PD=4.74U
M$337 \$63 \$143 vss vss nfet_03v3 L=0.5U W=2U AS=0.87P AD=0.87P PS=4.74U
+ PD=4.74U
M$339 \$142 \$144 vss vss nfet_03v3 L=0.5U W=2U AS=0.87P AD=0.87P PS=4.74U
+ PD=4.74U
M$341 vss \$143 \$144 vss nfet_03v3 L=0.5U W=1U AS=0.61P AD=0.61P PS=3.22U
+ PD=3.22U
M$342 \$146 \$145 vss vss nfet_03v3 L=0.5U W=1U AS=0.61P AD=0.61P PS=3.22U
+ PD=3.22U
M$343 \$65 \$146 \$64 vss nfet_03v3 L=0.5U W=2U AS=0.87P AD=0.87P PS=4.74U
+ PD=4.74U
M$345 \$147 \$145 \$64 vss nfet_03v3 L=0.5U W=2U AS=0.87P AD=0.87P PS=4.74U
+ PD=4.74U
M$347 \$65 \$148 vss vss nfet_03v3 L=0.5U W=2U AS=0.87P AD=0.87P PS=4.74U
+ PD=4.74U
M$349 \$147 \$149 vss vss nfet_03v3 L=0.5U W=2U AS=0.87P AD=0.87P PS=4.74U
+ PD=4.74U
M$351 vss \$148 \$149 vss nfet_03v3 L=0.5U W=1U AS=0.61P AD=0.61P PS=3.22U
+ PD=3.22U
M$352 \$151 \$150 vss vss nfet_03v3 L=0.5U W=1U AS=0.61P AD=0.61P PS=3.22U
+ PD=3.22U
M$353 \$67 \$151 \$66 vss nfet_03v3 L=0.5U W=2U AS=0.87P AD=0.87P PS=4.74U
+ PD=4.74U
M$355 \$152 \$150 \$66 vss nfet_03v3 L=0.5U W=2U AS=0.87P AD=0.87P PS=4.74U
+ PD=4.74U
M$357 \$67 \$153 vss vss nfet_03v3 L=0.5U W=2U AS=0.87P AD=0.87P PS=4.74U
+ PD=4.74U
M$359 \$152 \$154 vss vss nfet_03v3 L=0.5U W=2U AS=0.87P AD=0.87P PS=4.74U
+ PD=4.74U
M$361 vss \$153 \$154 vss nfet_03v3 L=0.5U W=1U AS=0.61P AD=0.61P PS=3.22U
+ PD=3.22U
M$362 \$156 \$155 vss vss nfet_03v3 L=0.5U W=1U AS=0.61P AD=0.61P PS=3.22U
+ PD=3.22U
M$363 \$69 \$156 \$68 vss nfet_03v3 L=0.5U W=2U AS=0.87P AD=0.87P PS=4.74U
+ PD=4.74U
M$365 \$157 \$155 \$68 vss nfet_03v3 L=0.5U W=2U AS=0.87P AD=0.87P PS=4.74U
+ PD=4.74U
M$367 \$69 \$158 vss vss nfet_03v3 L=0.5U W=2U AS=0.87P AD=0.87P PS=4.74U
+ PD=4.74U
M$369 \$157 \$159 vss vss nfet_03v3 L=0.5U W=2U AS=0.87P AD=0.87P PS=4.74U
+ PD=4.74U
M$371 vss \$158 \$159 vss nfet_03v3 L=0.5U W=1U AS=0.61P AD=0.61P PS=3.22U
+ PD=3.22U
M$372 \$70 \$58 vss vss nfet_03v3 L=0.5U W=2U AS=0.87P AD=0.87P PS=4.74U
+ PD=4.74U
M$374 \$70 \$56 \$51 vss nfet_03v3 L=0.5U W=2U AS=0.87P AD=0.87P PS=4.74U
+ PD=4.74U
M$376 \$71 \$54 vss vss nfet_03v3 L=0.5U W=2U AS=0.87P AD=0.87P PS=4.74U
+ PD=4.74U
M$378 \$71 \$52 \$160 vss nfet_03v3 L=0.5U W=2U AS=0.87P AD=0.87P PS=4.74U
+ PD=4.74U
M$380 vss \$160 \$15 vss nfet_03v3 L=0.5U W=1U AS=0.61P AD=0.61P PS=3.22U
+ PD=3.22U
M$381 \$15 \$51 vss vss nfet_03v3 L=0.5U W=1U AS=0.61P AD=0.61P PS=3.22U
+ PD=3.22U
M$382 \$72 \$68 vss vss nfet_03v3 L=0.5U W=2U AS=0.87P AD=0.87P PS=4.74U
+ PD=4.74U
M$384 \$72 \$6 \$161 vss nfet_03v3 L=0.5U W=2U AS=0.87P AD=0.87P PS=4.74U
+ PD=4.74U
M$386 \$16 \$161 vss vss nfet_03v3 L=0.5U W=1U AS=0.61P AD=0.61P PS=3.22U
+ PD=3.22U
M$387 vss rst mc vss nfet_03v3 L=0.5U W=1U AS=0.61P AD=0.61P PS=3.22U PD=3.22U
M$388 mc \$8 vss vss nfet_03v3 L=0.5U W=1U AS=0.61P AD=0.61P PS=3.22U PD=3.22U
M$389 \$646 \$418 vss vss nfet_03v3 L=0.5U W=1U AS=0.61P AD=0.61P PS=3.22U
+ PD=3.22U
M$390 \$418 a vss vss nfet_03v3 L=0.5U W=1U AS=0.61P AD=0.61P PS=3.22U PD=3.22U
M$391 \$790 \$475 vss vss nfet_03v3 L=0.5U W=1U AS=0.61P AD=0.61P PS=3.22U
+ PD=3.22U
M$392 \$420 \$646 \$419 vss nfet_03v3 L=0.5U W=1U AS=0.61P AD=0.61P PS=3.22U
+ PD=3.22U
M$393 \$419 \$418 \$790 vss nfet_03v3 L=0.5U W=1U AS=0.61P AD=0.61P PS=3.22U
+ PD=3.22U
M$394 \$565 \$473 \$420 vss nfet_03v3 L=0.5U W=2U AS=0.87P AD=0.87P PS=4.74U
+ PD=4.74U
M$396 \$473 \$419 vss vss nfet_03v3 L=0.5U W=1U AS=0.61P AD=0.61P PS=3.22U
+ PD=3.22U
M$397 \$565 \$421 vss vss nfet_03v3 L=0.5U W=2U AS=0.87P AD=0.87P PS=4.74U
+ PD=4.74U
M$399 \$422 \$646 \$473 vss nfet_03v3 L=0.5U W=1U AS=0.61P AD=0.61P PS=3.22U
+ PD=3.22U
M$400 vss rst \$421 vss nfet_03v3 L=0.5U W=1U AS=0.61P AD=0.61P PS=3.22U
+ PD=3.22U
M$401 \$774 \$422 vss vss nfet_03v3 L=0.5U W=2U AS=0.87P AD=0.87P PS=4.74U
+ PD=4.74U
M$403 \$423 \$418 \$422 vss nfet_03v3 L=0.5U W=1U AS=0.61P AD=0.61P PS=3.22U
+ PD=3.22U
M$404 \$774 \$421 \$475 vss nfet_03v3 L=0.5U W=2U AS=0.87P AD=0.87P PS=4.74U
+ PD=4.74U
M$406 vss \$475 \$423 vss nfet_03v3 L=0.5U W=1U AS=0.61P AD=0.61P PS=3.22U
+ PD=3.22U
M$407 \$118 \$475 vss vss nfet_03v3 L=0.5U W=1U AS=0.61P AD=0.61P PS=3.22U
+ PD=3.22U
M$408 \$115 d1 vss vss nfet_03v3 L=0.5U W=1U AS=0.61P AD=0.61P PS=3.22U PD=3.22U
M$409 \$775 \$424 vss vss nfet_03v3 L=0.5U W=1U AS=0.61P AD=0.61P PS=3.22U
+ PD=3.22U
M$410 \$424 \$118 vss vss nfet_03v3 L=0.5U W=1U AS=0.61P AD=0.61P PS=3.22U
+ PD=3.22U
M$411 \$792 \$477 vss vss nfet_03v3 L=0.5U W=1U AS=0.61P AD=0.61P PS=3.22U
+ PD=3.22U
M$412 \$426 \$775 \$425 vss nfet_03v3 L=0.5U W=1U AS=0.61P AD=0.61P PS=3.22U
+ PD=3.22U
M$413 \$425 \$424 \$792 vss nfet_03v3 L=0.5U W=1U AS=0.61P AD=0.61P PS=3.22U
+ PD=3.22U
M$414 \$566 \$476 \$426 vss nfet_03v3 L=0.5U W=2U AS=0.87P AD=0.87P PS=4.74U
+ PD=4.74U
M$416 \$476 \$425 vss vss nfet_03v3 L=0.5U W=1U AS=0.61P AD=0.61P PS=3.22U
+ PD=3.22U
M$417 \$566 \$427 vss vss nfet_03v3 L=0.5U W=2U AS=0.87P AD=0.87P PS=4.74U
+ PD=4.74U
M$419 \$428 \$775 \$476 vss nfet_03v3 L=0.5U W=1U AS=0.61P AD=0.61P PS=3.22U
+ PD=3.22U
M$420 vss rst \$427 vss nfet_03v3 L=0.5U W=1U AS=0.61P AD=0.61P PS=3.22U
+ PD=3.22U
M$421 \$776 \$428 vss vss nfet_03v3 L=0.5U W=2U AS=0.87P AD=0.87P PS=4.74U
+ PD=4.74U
M$423 \$429 \$424 \$428 vss nfet_03v3 L=0.5U W=1U AS=0.61P AD=0.61P PS=3.22U
+ PD=3.22U
M$424 \$776 \$427 \$477 vss nfet_03v3 L=0.5U W=2U AS=0.87P AD=0.87P PS=4.74U
+ PD=4.74U
M$426 vss \$477 \$429 vss nfet_03v3 L=0.5U W=1U AS=0.61P AD=0.61P PS=3.22U
+ PD=3.22U
M$427 \$120 d2 vss vss nfet_03v3 L=0.5U W=1U AS=0.61P AD=0.61P PS=3.22U PD=3.22U
M$428 \$123 \$477 vss vss nfet_03v3 L=0.5U W=1U AS=0.61P AD=0.61P PS=3.22U
+ PD=3.22U
M$429 \$647 \$430 vss vss nfet_03v3 L=0.5U W=1U AS=0.61P AD=0.61P PS=3.22U
+ PD=3.22U
M$430 \$430 \$123 vss vss nfet_03v3 L=0.5U W=1U AS=0.61P AD=0.61P PS=3.22U
+ PD=3.22U
M$431 \$794 \$479 vss vss nfet_03v3 L=0.5U W=1U AS=0.61P AD=0.61P PS=3.22U
+ PD=3.22U
M$432 \$432 \$647 \$431 vss nfet_03v3 L=0.5U W=1U AS=0.61P AD=0.61P PS=3.22U
+ PD=3.22U
M$433 \$431 \$430 \$794 vss nfet_03v3 L=0.5U W=1U AS=0.61P AD=0.61P PS=3.22U
+ PD=3.22U
M$434 \$567 \$478 \$432 vss nfet_03v3 L=0.5U W=2U AS=0.87P AD=0.87P PS=4.74U
+ PD=4.74U
M$436 \$478 \$431 vss vss nfet_03v3 L=0.5U W=1U AS=0.61P AD=0.61P PS=3.22U
+ PD=3.22U
M$437 \$567 \$433 vss vss nfet_03v3 L=0.5U W=2U AS=0.87P AD=0.87P PS=4.74U
+ PD=4.74U
M$439 \$434 \$647 \$478 vss nfet_03v3 L=0.5U W=1U AS=0.61P AD=0.61P PS=3.22U
+ PD=3.22U
M$440 vss rst \$433 vss nfet_03v3 L=0.5U W=1U AS=0.61P AD=0.61P PS=3.22U
+ PD=3.22U
M$441 \$777 \$434 vss vss nfet_03v3 L=0.5U W=2U AS=0.87P AD=0.87P PS=4.74U
+ PD=4.74U
M$443 \$435 \$430 \$434 vss nfet_03v3 L=0.5U W=1U AS=0.61P AD=0.61P PS=3.22U
+ PD=3.22U
M$444 \$777 \$433 \$479 vss nfet_03v3 L=0.5U W=2U AS=0.87P AD=0.87P PS=4.74U
+ PD=4.74U
M$446 vss \$479 \$435 vss nfet_03v3 L=0.5U W=1U AS=0.61P AD=0.61P PS=3.22U
+ PD=3.22U
M$447 \$128 \$479 vss vss nfet_03v3 L=0.5U W=1U AS=0.61P AD=0.61P PS=3.22U
+ PD=3.22U
M$448 \$125 d3 vss vss nfet_03v3 L=0.5U W=1U AS=0.61P AD=0.61P PS=3.22U PD=3.22U
M$449 \$778 \$436 vss vss nfet_03v3 L=0.5U W=1U AS=0.61P AD=0.61P PS=3.22U
+ PD=3.22U
M$450 \$436 \$128 vss vss nfet_03v3 L=0.5U W=1U AS=0.61P AD=0.61P PS=3.22U
+ PD=3.22U
M$451 \$796 \$481 vss vss nfet_03v3 L=0.5U W=1U AS=0.61P AD=0.61P PS=3.22U
+ PD=3.22U
M$452 \$438 \$778 \$437 vss nfet_03v3 L=0.5U W=1U AS=0.61P AD=0.61P PS=3.22U
+ PD=3.22U
M$453 \$568 \$480 \$438 vss nfet_03v3 L=0.5U W=2U AS=0.87P AD=0.87P PS=4.74U
+ PD=4.74U
M$455 \$437 \$436 \$796 vss nfet_03v3 L=0.5U W=1U AS=0.61P AD=0.61P PS=3.22U
+ PD=3.22U
M$456 \$480 \$437 vss vss nfet_03v3 L=0.5U W=1U AS=0.61P AD=0.61P PS=3.22U
+ PD=3.22U
M$457 \$568 \$439 vss vss nfet_03v3 L=0.5U W=2U AS=0.87P AD=0.87P PS=4.74U
+ PD=4.74U
M$459 \$440 \$778 \$480 vss nfet_03v3 L=0.5U W=1U AS=0.61P AD=0.61P PS=3.22U