* Extracted by KLayout with GF180MCU LVS runset on : 09/09/2025 21:45

.SUBCKT asc_dual_psd_def_20250809 vdd sd9 sd8 sd7 sd6 sd5 sd4 sd3 sd2 sd1 vss
+ fout define fin pd1 pd2 pd3 pd4 pd5 pd6 pd7 pd8 pd9
M$1 vdd sd9 \$77 vdd pfet_03v3 L=0.5U W=3U AS=1.95P AD=1.95P PS=7.3U PD=7.3U
M$2 vdd \$119 \$78 vdd pfet_03v3 L=0.5U W=3U AS=1.95P AD=1.95P PS=7.3U PD=7.3U
M$3 \$78 \$120 vdd vdd pfet_03v3 L=0.5U W=3U AS=1.95P AD=1.95P PS=7.3U PD=7.3U
M$4 \$79 \$3 \$120 vdd pfet_03v3 L=0.5U W=3U AS=1.95P AD=1.95P PS=7.3U PD=7.3U
M$5 vdd \$121 \$79 vdd pfet_03v3 L=0.5U W=3U AS=1.95P AD=1.95P PS=7.3U PD=7.3U
M$6 \$81 \$80 \$121 vdd pfet_03v3 L=0.5U W=3U AS=1.95P AD=1.95P PS=7.3U PD=7.3U
M$7 vdd \$78 \$81 vdd pfet_03v3 L=0.5U W=3U AS=1.95P AD=1.95P PS=7.3U PD=7.3U
M$8 vdd \$3 \$80 vdd pfet_03v3 L=0.5U W=3U AS=1.95P AD=1.95P PS=7.3U PD=7.3U
M$9 vdd sd8 \$4 vdd pfet_03v3 L=0.5U W=3U AS=1.95P AD=1.95P PS=7.3U PD=7.3U
M$10 vdd \$123 \$82 vdd pfet_03v3 L=0.5U W=3U AS=1.95P AD=1.95P PS=7.3U PD=7.3U
M$11 \$82 \$124 vdd vdd pfet_03v3 L=0.5U W=3U AS=1.95P AD=1.95P PS=7.3U PD=7.3U
M$12 \$83 \$5 \$124 vdd pfet_03v3 L=0.5U W=3U AS=1.95P AD=1.95P PS=7.3U PD=7.3U
M$13 vdd \$125 \$83 vdd pfet_03v3 L=0.5U W=3U AS=1.95P AD=1.95P PS=7.3U PD=7.3U
M$14 \$85 \$84 \$125 vdd pfet_03v3 L=0.5U W=3U AS=1.95P AD=1.95P PS=7.3U PD=7.3U
M$15 vdd \$82 \$85 vdd pfet_03v3 L=0.5U W=3U AS=1.95P AD=1.95P PS=7.3U PD=7.3U
M$16 vdd \$5 \$84 vdd pfet_03v3 L=0.5U W=3U AS=1.95P AD=1.95P PS=7.3U PD=7.3U
M$17 vdd sd7 \$86 vdd pfet_03v3 L=0.5U W=3U AS=1.95P AD=1.95P PS=7.3U PD=7.3U
M$18 vdd \$127 \$87 vdd pfet_03v3 L=0.5U W=3U AS=1.95P AD=1.95P PS=7.3U PD=7.3U
M$19 \$87 \$128 vdd vdd pfet_03v3 L=0.5U W=3U AS=1.95P AD=1.95P PS=7.3U PD=7.3U
M$20 \$88 \$6 \$128 vdd pfet_03v3 L=0.5U W=3U AS=1.95P AD=1.95P PS=7.3U PD=7.3U
M$21 vdd \$129 \$88 vdd pfet_03v3 L=0.5U W=3U AS=1.95P AD=1.95P PS=7.3U PD=7.3U
M$22 \$90 \$89 \$129 vdd pfet_03v3 L=0.5U W=3U AS=1.95P AD=1.95P PS=7.3U PD=7.3U
M$23 vdd \$87 \$90 vdd pfet_03v3 L=0.5U W=3U AS=1.95P AD=1.95P PS=7.3U PD=7.3U
M$24 vdd \$6 \$89 vdd pfet_03v3 L=0.5U W=3U AS=1.95P AD=1.95P PS=7.3U PD=7.3U
M$25 vdd sd6 \$91 vdd pfet_03v3 L=0.5U W=3U AS=1.95P AD=1.95P PS=7.3U PD=7.3U
M$26 vdd \$454 \$131 vdd pfet_03v3 L=0.5U W=3U AS=1.95P AD=1.95P PS=7.3U PD=7.3U
M$27 \$131 \$132 vdd vdd pfet_03v3 L=0.5U W=3U AS=1.95P AD=1.95P PS=7.3U PD=7.3U
M$28 \$92 \$7 \$132 vdd pfet_03v3 L=0.5U W=3U AS=1.95P AD=1.95P PS=7.3U PD=7.3U
M$29 vdd \$133 \$92 vdd pfet_03v3 L=0.5U W=3U AS=1.95P AD=1.95P PS=7.3U PD=7.3U
M$30 \$94 \$93 \$133 vdd pfet_03v3 L=0.5U W=3U AS=1.95P AD=1.95P PS=7.3U PD=7.3U
M$31 vdd \$131 \$94 vdd pfet_03v3 L=0.5U W=3U AS=1.95P AD=1.95P PS=7.3U PD=7.3U
M$32 vdd \$7 \$93 vdd pfet_03v3 L=0.5U W=3U AS=1.95P AD=1.95P PS=7.3U PD=7.3U
M$33 vdd sd5 \$8 vdd pfet_03v3 L=0.5U W=3U AS=1.95P AD=1.95P PS=7.3U PD=7.3U
M$34 vdd \$458 \$135 vdd pfet_03v3 L=0.5U W=3U AS=1.95P AD=1.95P PS=7.3U PD=7.3U
M$35 \$135 \$136 vdd vdd pfet_03v3 L=0.5U W=3U AS=1.95P AD=1.95P PS=7.3U PD=7.3U
M$36 \$95 \$9 \$136 vdd pfet_03v3 L=0.5U W=3U AS=1.95P AD=1.95P PS=7.3U PD=7.3U
M$37 vdd \$137 \$95 vdd pfet_03v3 L=0.5U W=3U AS=1.95P AD=1.95P PS=7.3U PD=7.3U
M$38 \$97 \$96 \$137 vdd pfet_03v3 L=0.5U W=3U AS=1.95P AD=1.95P PS=7.3U PD=7.3U
M$39 vdd \$135 \$97 vdd pfet_03v3 L=0.5U W=3U AS=1.95P AD=1.95P PS=7.3U PD=7.3U
M$40 vdd \$9 \$96 vdd pfet_03v3 L=0.5U W=3U AS=1.95P AD=1.95P PS=7.3U PD=7.3U
M$41 vdd sd4 \$98 vdd pfet_03v3 L=0.5U W=3U AS=1.95P AD=1.95P PS=7.3U PD=7.3U
M$42 vdd \$139 \$99 vdd pfet_03v3 L=0.5U W=3U AS=1.95P AD=1.95P PS=7.3U PD=7.3U
M$43 \$99 \$140 vdd vdd pfet_03v3 L=0.5U W=3U AS=1.95P AD=1.95P PS=7.3U PD=7.3U
M$44 \$100 \$10 \$140 vdd pfet_03v3 L=0.5U W=3U AS=1.95P AD=1.95P PS=7.3U
+ PD=7.3U
M$45 vdd \$141 \$100 vdd pfet_03v3 L=0.5U W=3U AS=1.95P AD=1.95P PS=7.3U PD=7.3U
M$46 \$102 \$101 \$141 vdd pfet_03v3 L=0.5U W=3U AS=1.95P AD=1.95P PS=7.3U
+ PD=7.3U
M$47 vdd \$99 \$102 vdd pfet_03v3 L=0.5U W=3U AS=1.95P AD=1.95P PS=7.3U PD=7.3U
M$48 vdd \$10 \$101 vdd pfet_03v3 L=0.5U W=3U AS=1.95P AD=1.95P PS=7.3U PD=7.3U
M$49 vdd sd3 \$103 vdd pfet_03v3 L=0.5U W=3U AS=1.95P AD=1.95P PS=7.3U PD=7.3U
M$50 vdd \$143 \$104 vdd pfet_03v3 L=0.5U W=3U AS=1.95P AD=1.95P PS=7.3U PD=7.3U
M$51 \$104 \$144 vdd vdd pfet_03v3 L=0.5U W=3U AS=1.95P AD=1.95P PS=7.3U PD=7.3U
M$52 \$105 \$11 \$144 vdd pfet_03v3 L=0.5U W=3U AS=1.95P AD=1.95P PS=7.3U
+ PD=7.3U
M$53 vdd \$145 \$105 vdd pfet_03v3 L=0.5U W=3U AS=1.95P AD=1.95P PS=7.3U PD=7.3U
M$54 \$107 \$106 \$145 vdd pfet_03v3 L=0.5U W=3U AS=1.95P AD=1.95P PS=7.3U
+ PD=7.3U
M$55 vdd \$104 \$107 vdd pfet_03v3 L=0.5U W=3U AS=1.95P AD=1.95P PS=7.3U PD=7.3U
M$56 vdd \$11 \$106 vdd pfet_03v3 L=0.5U W=3U AS=1.95P AD=1.95P PS=7.3U PD=7.3U
M$57 vdd sd2 \$108 vdd pfet_03v3 L=0.5U W=3U AS=1.95P AD=1.95P PS=7.3U PD=7.3U
M$58 vdd \$468 \$109 vdd pfet_03v3 L=0.5U W=3U AS=1.95P AD=1.95P PS=7.3U PD=7.3U
M$59 \$109 \$147 vdd vdd pfet_03v3 L=0.5U W=3U AS=1.95P AD=1.95P PS=7.3U PD=7.3U
M$60 \$110 \$12 \$147 vdd pfet_03v3 L=0.5U W=3U AS=1.95P AD=1.95P PS=7.3U
+ PD=7.3U
M$61 vdd \$148 \$110 vdd pfet_03v3 L=0.5U W=3U AS=1.95P AD=1.95P PS=7.3U PD=7.3U
M$62 \$112 \$111 \$148 vdd pfet_03v3 L=0.5U W=3U AS=1.95P AD=1.95P PS=7.3U
+ PD=7.3U
M$63 vdd \$109 \$112 vdd pfet_03v3 L=0.5U W=3U AS=1.95P AD=1.95P PS=7.3U PD=7.3U
M$64 vdd \$12 \$111 vdd pfet_03v3 L=0.5U W=3U AS=1.95P AD=1.95P PS=7.3U PD=7.3U
M$65 vdd sd1 \$113 vdd pfet_03v3 L=0.5U W=3U AS=1.95P AD=1.95P PS=7.3U PD=7.3U
M$66 vdd \$150 \$114 vdd pfet_03v3 L=0.5U W=3U AS=1.95P AD=1.95P PS=7.3U PD=7.3U
M$67 \$114 \$151 vdd vdd pfet_03v3 L=0.5U W=3U AS=1.95P AD=1.95P PS=7.3U PD=7.3U
M$68 \$115 \$13 \$151 vdd pfet_03v3 L=0.5U W=3U AS=1.95P AD=1.95P PS=7.3U
+ PD=7.3U
M$69 vdd \$152 \$115 vdd pfet_03v3 L=0.5U W=3U AS=1.95P AD=1.95P PS=7.3U PD=7.3U
M$70 \$117 \$116 \$152 vdd pfet_03v3 L=0.5U W=3U AS=1.95P AD=1.95P PS=7.3U
+ PD=7.3U
M$71 vdd \$114 \$117 vdd pfet_03v3 L=0.5U W=3U AS=1.95P AD=1.95P PS=7.3U PD=7.3U
M$72 vdd \$13 \$116 vdd pfet_03v3 L=0.5U W=3U AS=1.95P AD=1.95P PS=7.3U PD=7.3U
M$73 vdd \$78 \$443 vdd pfet_03v3 L=0.5U W=3U AS=1.95P AD=1.95P PS=7.3U PD=7.3U
M$74 \$444 \$78 vdd vdd pfet_03v3 L=0.5U W=3U AS=1.95P AD=1.95P PS=7.3U PD=7.3U
M$75 \$120 \$80 \$444 vdd pfet_03v3 L=0.5U W=3U AS=1.95P AD=1.95P PS=7.3U
+ PD=7.3U
M$76 \$119 \$1 vdd vdd pfet_03v3 L=0.5U W=3U AS=1.95P AD=1.95P PS=7.3U PD=7.3U
M$77 vdd \$119 \$445 vdd pfet_03v3 L=0.5U W=3U AS=1.95P AD=1.95P PS=7.3U PD=7.3U
M$78 \$445 \$79 vdd vdd pfet_03v3 L=0.5U W=3U AS=1.95P AD=1.95P PS=7.3U PD=7.3U
M$79 \$121 \$3 \$445 vdd pfet_03v3 L=0.5U W=3U AS=1.95P AD=1.95P PS=7.3U PD=7.3U
M$80 vdd \$446 \$3 vdd pfet_03v3 L=0.5U W=3U AS=1.95P AD=1.95P PS=7.3U PD=7.3U
M$81 vdd \$82 \$446 vdd pfet_03v3 L=0.5U W=3U AS=1.95P AD=1.95P PS=7.3U PD=7.3U
M$82 \$447 \$82 vdd vdd pfet_03v3 L=0.5U W=3U AS=1.95P AD=1.95P PS=7.3U PD=7.3U
M$83 \$124 \$84 \$447 vdd pfet_03v3 L=0.5U W=3U AS=1.95P AD=1.95P PS=7.3U
+ PD=7.3U
M$84 \$123 \$1 vdd vdd pfet_03v3 L=0.5U W=3U AS=1.95P AD=1.95P PS=7.3U PD=7.3U
M$85 vdd \$123 \$448 vdd pfet_03v3 L=0.5U W=3U AS=1.95P AD=1.95P PS=7.3U PD=7.3U
M$86 \$448 \$83 vdd vdd pfet_03v3 L=0.5U W=3U AS=1.95P AD=1.95P PS=7.3U PD=7.3U
M$87 \$125 \$5 \$448 vdd pfet_03v3 L=0.5U W=3U AS=1.95P AD=1.95P PS=7.3U PD=7.3U
M$88 vdd \$449 \$5 vdd pfet_03v3 L=0.5U W=3U AS=1.95P AD=1.95P PS=7.3U PD=7.3U
M$89 vdd \$87 \$449 vdd pfet_03v3 L=0.5U W=3U AS=1.95P AD=1.95P PS=7.3U PD=7.3U
M$90 \$450 \$87 vdd vdd pfet_03v3 L=0.5U W=3U AS=1.95P AD=1.95P PS=7.3U PD=7.3U
M$91 \$128 \$89 \$450 vdd pfet_03v3 L=0.5U W=3U AS=1.95P AD=1.95P PS=7.3U
+ PD=7.3U
M$92 \$127 \$1 vdd vdd pfet_03v3 L=0.5U W=3U AS=1.95P AD=1.95P PS=7.3U PD=7.3U
M$93 vdd \$127 \$451 vdd pfet_03v3 L=0.5U W=3U AS=1.95P AD=1.95P PS=7.3U PD=7.3U
M$94 \$451 \$88 vdd vdd pfet_03v3 L=0.5U W=3U AS=1.95P AD=1.95P PS=7.3U PD=7.3U
M$95 \$129 \$6 \$451 vdd pfet_03v3 L=0.5U W=3U AS=1.95P AD=1.95P PS=7.3U PD=7.3U
M$96 vdd \$452 \$6 vdd pfet_03v3 L=0.5U W=3U AS=1.95P AD=1.95P PS=7.3U PD=7.3U
M$97 vdd \$131 \$452 vdd pfet_03v3 L=0.5U W=3U AS=1.95P AD=1.95P PS=7.3U PD=7.3U
M$98 \$453 \$131 vdd vdd pfet_03v3 L=0.5U W=3U AS=1.95P AD=1.95P PS=7.3U PD=7.3U
M$99 \$132 \$93 \$453 vdd pfet_03v3 L=0.5U W=3U AS=1.95P AD=1.95P PS=7.3U
+ PD=7.3U
M$100 \$454 \$1 vdd vdd pfet_03v3 L=0.5U W=3U AS=1.95P AD=1.95P PS=7.3U PD=7.3U
M$101 vdd \$454 \$455 vdd pfet_03v3 L=0.5U W=3U AS=1.95P AD=1.95P PS=7.3U
+ PD=7.3U
M$102 \$455 \$92 vdd vdd pfet_03v3 L=0.5U W=3U AS=1.95P AD=1.95P PS=7.3U PD=7.3U
M$103 \$133 \$7 \$455 vdd pfet_03v3 L=0.5U W=3U AS=1.95P AD=1.95P PS=7.3U
+ PD=7.3U
M$104 vdd \$456 \$7 vdd pfet_03v3 L=0.5U W=3U AS=1.95P AD=1.95P PS=7.3U PD=7.3U
M$105 vdd \$135 \$456 vdd pfet_03v3 L=0.5U W=3U AS=1.95P AD=1.95P PS=7.3U
+ PD=7.3U
M$106 \$457 \$135 vdd vdd pfet_03v3 L=0.5U W=3U AS=1.95P AD=1.95P PS=7.3U
+ PD=7.3U
M$107 \$136 \$96 \$457 vdd pfet_03v3 L=0.5U W=3U AS=1.95P AD=1.95P PS=7.3U
+ PD=7.3U
M$108 \$458 \$1 vdd vdd pfet_03v3 L=0.5U W=3U AS=1.95P AD=1.95P PS=7.3U PD=7.3U
M$109 vdd \$458 \$459 vdd pfet_03v3 L=0.5U W=3U AS=1.95P AD=1.95P PS=7.3U
+ PD=7.3U
M$110 \$459 \$95 vdd vdd pfet_03v3 L=0.5U W=3U AS=1.95P AD=1.95P PS=7.3U PD=7.3U
M$111 \$137 \$9 \$459 vdd pfet_03v3 L=0.5U W=3U AS=1.95P AD=1.95P PS=7.3U
+ PD=7.3U
M$112 vdd \$460 \$9 vdd pfet_03v3 L=0.5U W=3U AS=1.95P AD=1.95P PS=7.3U PD=7.3U
M$113 vdd \$99 \$460 vdd pfet_03v3 L=0.5U W=3U AS=1.95P AD=1.95P PS=7.3U PD=7.3U
M$114 \$461 \$99 vdd vdd pfet_03v3 L=0.5U W=3U AS=1.95P AD=1.95P PS=7.3U PD=7.3U
M$115 \$140 \$101 \$461 vdd pfet_03v3 L=0.5U W=3U AS=1.95P AD=1.95P PS=7.3U
+ PD=7.3U
M$116 \$139 \$1 vdd vdd pfet_03v3 L=0.5U W=3U AS=1.95P AD=1.95P PS=7.3U PD=7.3U
M$117 vdd \$139 \$462 vdd pfet_03v3 L=0.5U W=3U AS=1.95P AD=1.95P PS=7.3U
+ PD=7.3U
M$118 \$462 \$100 vdd vdd pfet_03v3 L=0.5U W=3U AS=1.95P AD=1.95P PS=7.3U
+ PD=7.3U
M$119 \$141 \$10 \$462 vdd pfet_03v3 L=0.5U W=3U AS=1.95P AD=1.95P PS=7.3U
+ PD=7.3U
M$120 vdd \$463 \$10 vdd pfet_03v3 L=0.5U W=3U AS=1.95P AD=1.95P PS=7.3U PD=7.3U
M$121 vdd \$104 \$463 vdd pfet_03v3 L=0.5U W=3U AS=1.95P AD=1.95P PS=7.3U
+ PD=7.3U
M$122 \$464 \$104 vdd vdd pfet_03v3 L=0.5U W=3U AS=1.95P AD=1.95P PS=7.3U
+ PD=7.3U
M$123 \$144 \$106 \$464 vdd pfet_03v3 L=0.5U W=3U AS=1.95P AD=1.95P PS=7.3U
+ PD=7.3U
M$124 \$143 \$1 vdd vdd pfet_03v3 L=0.5U W=3U AS=1.95P AD=1.95P PS=7.3U PD=7.3U
M$125 vdd \$143 \$465 vdd pfet_03v3 L=0.5U W=3U AS=1.95P AD=1.95P PS=7.3U
+ PD=7.3U
M$126 \$465 \$105 vdd vdd pfet_03v3 L=0.5U W=3U AS=1.95P AD=1.95P PS=7.3U
+ PD=7.3U
M$127 \$145 \$11 \$465 vdd pfet_03v3 L=0.5U W=3U AS=1.95P AD=1.95P PS=7.3U
+ PD=7.3U
M$128 vdd \$466 \$11 vdd pfet_03v3 L=0.5U W=3U AS=1.95P AD=1.95P PS=7.3U PD=7.3U
M$129 vdd \$109 \$466 vdd pfet_03v3 L=0.5U W=3U AS=1.95P AD=1.95P PS=7.3U
+ PD=7.3U
M$130 \$467 \$109 vdd vdd pfet_03v3 L=0.5U W=3U AS=1.95P AD=1.95P PS=7.3U
+ PD=7.3U
M$131 \$147 \$111 \$467 vdd pfet_03v3 L=0.5U W=3U AS=1.95P AD=1.95P PS=7.3U
+ PD=7.3U
M$132 \$468 \$1 vdd vdd pfet_03v3 L=0.5U W=3U AS=1.95P AD=1.95P PS=7.3U PD=7.3U
M$133 vdd \$468 \$469 vdd pfet_03v3 L=0.5U W=3U AS=1.95P AD=1.95P PS=7.3U
+ PD=7.3U
M$134 \$469 \$110 vdd vdd pfet_03v3 L=0.5U W=3U AS=1.95P AD=1.95P PS=7.3U
+ PD=7.3U
M$135 \$148 \$12 \$469 vdd pfet_03v3 L=0.5U W=3U AS=1.95P AD=1.95P PS=7.3U
+ PD=7.3U
M$136 vdd \$470 \$12 vdd pfet_03v3 L=0.5U W=3U AS=1.95P AD=1.95P PS=7.3U PD=7.3U
M$137 vdd \$114 \$470 vdd pfet_03v3 L=0.5U W=3U AS=1.95P AD=1.95P PS=7.3U
+ PD=7.3U
M$138 \$471 \$114 vdd vdd pfet_03v3 L=0.5U W=3U AS=1.95P AD=1.95P PS=7.3U
+ PD=7.3U
M$139 \$151 \$116 \$471 vdd pfet_03v3 L=0.5U W=3U AS=1.95P AD=1.95P PS=7.3U
+ PD=7.3U
M$140 \$150 \$1 vdd vdd pfet_03v3 L=0.5U W=3U AS=1.95P AD=1.95P PS=7.3U PD=7.3U
M$141 vdd \$150 \$472 vdd pfet_03v3 L=0.5U W=3U AS=1.95P AD=1.95P PS=7.3U
+ PD=7.3U
M$142 \$472 \$115 vdd vdd pfet_03v3 L=0.5U W=3U AS=1.95P AD=1.95P PS=7.3U
+ PD=7.3U
M$143 \$152 \$13 \$472 vdd pfet_03v3 L=0.5U W=3U AS=1.95P AD=1.95P PS=7.3U
+ PD=7.3U
M$144 vdd \$473 \$13 vdd pfet_03v3 L=0.5U W=3U AS=1.95P AD=1.95P PS=7.3U PD=7.3U
M$145 \$739 \$788 \$738 vdd pfet_03v3 L=0.5U W=6U AS=2.73P AD=2.73P PS=10.82U
+ PD=10.82U
M$147 \$739 \$1 vdd vdd pfet_03v3 L=0.5U W=6U AS=2.73P AD=2.73P PS=10.82U
+ PD=10.82U
M$149 vdd \$741 \$740 vdd pfet_03v3 L=0.5U W=3U AS=1.95P AD=1.95P PS=7.3U
+ PD=7.3U
M$150 vdd \$789 \$741 vdd pfet_03v3 L=0.5U W=3U AS=1.95P AD=1.95P PS=7.3U
+ PD=7.3U
M$151 \$741 \$681 vdd vdd pfet_03v3 L=0.5U W=3U AS=1.95P AD=1.95P PS=7.3U
+ PD=7.3U
M$152 \$743 \$745 \$742 vdd pfet_03v3 L=0.5U W=6U AS=2.73P AD=2.73P PS=10.82U
+ PD=10.82U
M$154 \$743 \$744 vdd vdd pfet_03v3 L=0.5U W=6U AS=2.73P AD=2.73P PS=10.82U
+ PD=10.82U
M$156 vdd \$689 \$744 vdd pfet_03v3 L=0.5U W=3U AS=1.95P AD=1.95P PS=7.3U
+ PD=7.3U
M$157 \$744 \$688 vdd vdd pfet_03v3 L=0.5U W=3U AS=1.95P AD=1.95P PS=7.3U
+ PD=7.3U
M$158 vdd \$687 \$745 vdd pfet_03v3 L=0.5U W=3U AS=1.95P AD=1.95P PS=7.3U
+ PD=7.3U
M$159 \$745 \$686 vdd vdd pfet_03v3 L=0.5U W=3U AS=1.95P AD=1.95P PS=7.3U
+ PD=7.3U
M$160 \$746 \$443 vdd vdd pfet_03v3 L=0.5U W=3U AS=1.95P AD=1.95P PS=7.3U
+ PD=7.3U
M$161 \$747 \$746 \$681 vdd pfet_03v3 L=0.5U W=6U AS=2.73P AD=2.73P PS=10.82U
+ PD=10.82U
M$163 \$748 \$443 \$681 vdd pfet_03v3 L=0.5U W=6U AS=2.73P AD=2.73P PS=10.82U
+ PD=10.82U
M$165 \$748 \$77 vdd vdd pfet_03v3 L=0.5U W=6U AS=2.73P AD=2.73P PS=10.82U
+ PD=10.82U
M$167 \$747 \$749 vdd vdd pfet_03v3 L=0.5U W=6U AS=2.73P AD=2.73P PS=10.82U
+ PD=10.82U
M$169 vdd \$77 \$749 vdd pfet_03v3 L=0.5U W=3U AS=1.95P AD=1.95P PS=7.3U PD=7.3U
M$170 \$750 \$446 vdd vdd pfet_03v3 L=0.5U W=3U AS=1.95P AD=1.95P PS=7.3U
+ PD=7.3U
M$171 \$751 \$750 \$682 vdd pfet_03v3 L=0.5U W=6U AS=2.73P AD=2.73P PS=10.82U
+ PD=10.82U
M$173 \$752 \$446 \$682 vdd pfet_03v3 L=0.5U W=6U AS=2.73P AD=2.73P PS=10.82U
+ PD=10.82U
M$175 \$752 \$4 vdd vdd pfet_03v3 L=0.5U W=6U AS=2.73P AD=2.73P PS=10.82U
+ PD=10.82U
M$177 \$751 \$753 vdd vdd pfet_03v3 L=0.5U W=6U AS=2.73P AD=2.73P PS=10.82U
+ PD=10.82U
M$179 vdd \$4 \$753 vdd pfet_03v3 L=0.5U W=3U AS=1.95P AD=1.95P PS=7.3U PD=7.3U
M$180 \$754 \$449 vdd vdd pfet_03v3 L=0.5U W=3U AS=1.95P AD=1.95P PS=7.3U
+ PD=7.3U
M$181 \$755 \$754 \$683 vdd pfet_03v3 L=0.5U W=6U AS=2.73P AD=2.73P PS=10.82U
+ PD=10.82U
M$183 \$756 \$449 \$683 vdd pfet_03v3 L=0.5U W=6U AS=2.73P AD=2.73P PS=10.82U
+ PD=10.82U
M$185 \$756 \$86 vdd vdd pfet_03v3 L=0.5U W=6U AS=2.73P AD=2.73P PS=10.82U
+ PD=10.82U
M$187 \$755 \$757 vdd vdd pfet_03v3 L=0.5U W=6U AS=2.73P AD=2.73P PS=10.82U
+ PD=10.82U
M$189 vdd \$86 \$757 vdd pfet_03v3 L=0.5U W=3U AS=1.95P AD=1.95P PS=7.3U PD=7.3U
M$190 \$758 \$452 vdd vdd pfet_03v3 L=0.5U W=3U AS=1.95P AD=1.95P PS=7.3U
+ PD=7.3U
M$191 \$759 \$758 \$684 vdd pfet_03v3 L=0.5U W=6U AS=2.73P AD=2.73P PS=10.82U
+ PD=10.82U
M$193 \$760 \$452 \$684 vdd pfet_03v3 L=0.5U W=6U AS=2.73P AD=2.73P PS=10.82U
+ PD=10.82U
M$195 \$760 \$91 vdd vdd pfet_03v3 L=0.5U W=6U AS=2.73P AD=2.73P PS=10.82U
+ PD=10.82U
M$197 \$759 \$761 vdd vdd pfet_03v3 L=0.5U W=6U AS=2.73P AD=2.73P PS=10.82U
+ PD=10.82U
M$199 vdd \$91 \$761 vdd pfet_03v3 L=0.5U W=3U AS=1.95P AD=1.95P PS=7.3U PD=7.3U
M$200 \$762 \$456 vdd vdd pfet_03v3 L=0.5U W=3U AS=1.95P AD=1.95P PS=7.3U
+ PD=7.3U
M$201 \$763 \$762 \$685 vdd pfet_03v3 L=0.5U W=6U AS=2.73P AD=2.73P PS=10.82U
+ PD=10.82U
M$203 \$764 \$456 \$685 vdd pfet_03v3 L=0.5U W=6U AS=2.73P AD=2.73P PS=10.82U
+ PD=10.82U
M$205 \$764 \$8 vdd vdd pfet_03v3 L=0.5U W=6U AS=2.73P AD=2.73P PS=10.82U
+ PD=10.82U
M$207 \$763 \$765 vdd vdd pfet_03v3 L=0.5U W=6U AS=2.73P AD=2.73P PS=10.82U
+ PD=10.82U
M$209 vdd \$8 \$765 vdd pfet_03v3 L=0.5U W=3U AS=1.95P AD=1.95P PS=7.3U PD=7.3U
M$210 \$766 \$460 vdd vdd pfet_03v3 L=0.5U W=3U AS=1.95P AD=1.95P PS=7.3U
+ PD=7.3U
M$211 \$767 \$766 \$686 vdd pfet_03v3 L=0.5U W=6U AS=2.73P AD=2.73P PS=10.82U
+ PD=10.82U
M$213 \$768 \$460 \$686 vdd pfet_03v3 L=0.5U W=6U AS=2.73P AD=2.73P PS=10.82U
+ PD=10.82U
M$215 \$768 \$98 vdd vdd pfet_03v3 L=0.5U W=6U AS=2.73P AD=2.73P PS=10.82U
+ PD=10.82U
M$217 \$767 \$769 vdd vdd pfet_03v3 L=0.5U W=6U AS=2.73P AD=2.73P PS=10.82U
+ PD=10.82U
M$219 vdd \$98 \$769 vdd pfet_03v3 L=0.5U W=3U AS=1.95P AD=1.95P PS=7.3U PD=7.3U
M$220 \$770 \$463 vdd vdd pfet_03v3 L=0.5U W=3U AS=1.95P AD=1.95P PS=7.3U
+ PD=7.3U
M$221 \$771 \$770 \$687 vdd pfet_03v3 L=0.5U W=6U AS=2.73P AD=2.73P PS=10.82U
+ PD=10.82U
M$223 \$772 \$463 \$687 vdd pfet_03v3 L=0.5U W=6U AS=2.73P AD=2.73P PS=10.82U
+ PD=10.82U
M$225 \$772 \$103 vdd vdd pfet_03v3 L=0.5U W=6U AS=2.73P AD=2.73P PS=10.82U
+ PD=10.82U
M$227 \$771 \$773 vdd vdd pfet_03v3 L=0.5U W=6U AS=2.73P AD=2.73P PS=10.82U
+ PD=10.82U
M$229 vdd \$103 \$773 vdd pfet_03v3 L=0.5U W=3U AS=1.95P AD=1.95P PS=7.3U
+ PD=7.3U
M$230 \$774 \$466 vdd vdd pfet_03v3 L=0.5U W=3U AS=1.95P AD=1.95P PS=7.3U
+ PD=7.3U
M$231 \$775 \$774 \$688 vdd pfet_03v3 L=0.5U W=6U AS=2.73P AD=2.73P PS=10.82U
+ PD=10.82U
M$233 \$776 \$466 \$688 vdd pfet_03v3 L=0.5U W=6U AS=2.73P AD=2.73P PS=10.82U
+ PD=10.82U
M$235 \$776 \$108 vdd vdd pfet_03v3 L=0.5U W=6U AS=2.73P AD=2.73P PS=10.82U
+ PD=10.82U
M$237 \$775 \$777 vdd vdd pfet_03v3 L=0.5U W=6U AS=2.73P AD=2.73P PS=10.82U
+ PD=10.82U
M$239 vdd \$108 \$777 vdd pfet_03v3 L=0.5U W=3U AS=1.95P AD=1.95P PS=7.3U
+ PD=7.3U
M$240 \$778 \$470 vdd vdd pfet_03v3 L=0.5U W=3U AS=1.95P AD=1.95P PS=7.3U
+ PD=7.3U
M$241 \$779 \$778 \$689 vdd pfet_03v3 L=0.5U W=6U AS=2.73P AD=2.73P PS=10.82U
+ PD=10.82U
M$243 \$780 \$470 \$689 vdd pfet_03v3 L=0.5U W=6U AS=2.73P AD=2.73P PS=10.82U
+ PD=10.82U
M$245 \$780 \$113 vdd vdd pfet_03v3 L=0.5U W=6U AS=2.73P AD=2.73P PS=10.82U
+ PD=10.82U
M$247 \$779 \$781 vdd vdd pfet_03v3 L=0.5U W=6U AS=2.73P AD=2.73P PS=10.82U
+ PD=10.82U
M$249 vdd \$113 \$781 vdd pfet_03v3 L=0.5U W=3U AS=1.95P AD=1.95P PS=7.3U
+ PD=7.3U
M$250 vdd \$1033 \$782 vdd pfet_03v3 L=0.5U W=3U AS=1.95P AD=1.95P PS=7.3U
+ PD=7.3U
M$251 \$782 \$1031 vdd vdd pfet_03v3 L=0.5U W=3U AS=1.95P AD=1.95P PS=7.3U
+ PD=7.3U
M$252 vdd \$1029 \$783 vdd pfet_03v3 L=0.5U W=3U AS=1.95P AD=1.95P PS=7.3U
+ PD=7.3U
M$253 \$783 \$1027 vdd vdd pfet_03v3 L=0.5U W=3U AS=1.95P AD=1.95P PS=7.3U
+ PD=7.3U
M$254 \$784 \$783 vdd vdd pfet_03v3 L=0.5U W=6U AS=2.73P AD=2.73P PS=10.82U
+ PD=10.82U
M$256 \$784 \$782 \$785 vdd pfet_03v3 L=0.5U W=6U AS=2.73P AD=2.73P PS=10.82U
+ PD=10.82U
M$258 vdd \$785 \$786 vdd pfet_03v3 L=0.5U W=3U AS=1.95P AD=1.95P PS=7.3U
+ PD=7.3U
M$259 \$786 \$866 vdd vdd pfet_03v3 L=0.5U W=3U AS=1.95P AD=1.95P PS=7.3U
+ PD=7.3U
M$260 \$787 \$786 vdd vdd pfet_03v3 L=0.5U W=3U AS=1.95P AD=1.95P PS=7.3U
+ PD=7.3U
M$261 vdd \$790 \$1 vdd pfet_03v3 L=0.5U W=3U AS=1.95P AD=1.95P PS=7.3U PD=7.3U
M$262 \$1217 \$740 \$788 vdd pfet_03v3 L=0.5U W=6U AS=2.73P AD=2.73P PS=10.82U
+ PD=10.82U
M$264 \$1217 \$738 vdd vdd pfet_03v3 L=0.5U W=6U AS=2.73P AD=2.73P PS=10.82U
+ PD=10.82U
M$266 vdd \$1088 \$789 vdd pfet_03v3 L=0.5U W=3U AS=1.95P AD=1.95P PS=7.3U
+ PD=7.3U
M$267 vdd \$742 \$1088 vdd pfet_03v3 L=0.5U W=3U AS=1.95P AD=1.95P PS=7.3U
+ PD=7.3U
M$268 \$1088 \$1089 vdd vdd pfet_03v3 L=0.5U W=3U AS=1.95P AD=1.95P PS=7.3U
+ PD=7.3U
M$269 \$1218 \$1016 \$1089 vdd pfet_03v3 L=0.5U W=6U AS=2.73P AD=2.73P
+ PS=10.82U PD=10.82U
M$271 \$1218 \$1090 vdd vdd pfet_03v3 L=0.5U W=6U AS=2.73P AD=2.73P PS=10.82U
+ PD=10.82U
M$273 vdd \$685 \$1090 vdd pfet_03v3 L=0.5U W=3U AS=1.95P AD=1.95P PS=7.3U
+ PD=7.3U
M$274 \$1090 \$684 vdd vdd pfet_03v3 L=0.5U W=3U AS=1.95P AD=1.95P PS=7.3U
+ PD=7.3U
M$275 vdd \$683 \$1016 vdd pfet_03v3 L=0.5U W=3U AS=1.95P AD=1.95P PS=7.3U
+ PD=7.3U
M$276 \$1016 \$682 vdd vdd pfet_03v3 L=0.5U W=3U AS=1.95P AD=1.95P PS=7.3U
+ PD=7.3U
M$277 \$1092 \$1091 vdd vdd pfet_03v3 L=0.5U W=3U AS=1.95P AD=1.95P PS=7.3U
+ PD=7.3U
M$278 \$1219 \$1092 vdd vdd pfet_03v3 L=0.5U W=6U AS=2.73P AD=2.73P PS=10.82U
+ PD=10.82U
M$280 \$1220 \$1091 vdd vdd pfet_03v3 L=0.5U W=6U AS=2.73P AD=2.73P PS=10.82U
+ PD=10.82U
M$282 \$1220 \$1094 \$1019 vdd pfet_03v3 L=0.5U W=6U AS=2.73P AD=2.73P
+ PS=10.82U PD=10.82U
M$284 \$1219 \$1095 \$1019 vdd pfet_03v3 L=0.5U W=6U AS=2.73P AD=2.73P
+ PS=10.82U PD=10.82U
M$286 vdd \$1094 \$1095 vdd pfet_03v3 L=0.5U W=3U AS=1.95P AD=1.95P PS=7.3U
+ PD=7.3U
M$287 \$1097 \$1096 vdd vdd pfet_03v3 L=0.5U W=3U AS=1.95P AD=1.95P PS=7.3U
+ PD=7.3U
M$288 \$1221 \$1097 vdd vdd pfet_03v3 L=0.5U W=6U AS=2.73P AD=2.73P PS=10.82U
+ PD=10.82U
M$290 \$1222 \$1096 vdd vdd pfet_03v3 L=0.5U W=6U AS=2.73P AD=2.73P PS=10.82U
+ PD=10.82U
M$292 \$1222 \$1099 \$1021 vdd pfet_03v3 L=0.5U W=6U AS=2.73P AD=2.73P
+ PS=10.82U PD=10.82U
M$294 \$1221 \$1100 \$1021 vdd pfet_03v3 L=0.5U W=6U AS=2.73P AD=2.73P
+ PS=10.82U PD=10.82U
M$296 vdd \$1099 \$1100 vdd pfet_03v3 L=0.5U W=3U AS=1.95P AD=1.95P PS=7.3U
+ PD=7.3U
M$297 \$1102 \$1101 vdd vdd pfet_03v3 L=0.5U W=3U AS=1.95P AD=1.95P PS=7.3U
+ PD=7.3U
M$298 \$1223 \$1102 vdd vdd pfet_03v3 L=0.5U W=6U AS=2.73P AD=2.73P PS=10.82U
+ PD=10.82U
M$300 \$1224 \$1101 vdd vdd pfet_03v3 L=0.5U W=6U AS=2.73P AD=2.73P PS=10.82U
+ PD=10.82U
M$302 \$1224 \$1104 \$1023 vdd pfet_03v3 L=0.5U W=6U AS=2.73P AD=2.73P
+ PS=10.82U PD=10.82U
M$304 \$1223 \$1105 \$1023 vdd pfet_03v3 L=0.5U W=6U AS=2.73P AD=2.73P
+ PS=10.82U PD=10.82U
M$306 vdd \$1104 \$1105 vdd pfet_03v3 L=0.5U W=3U AS=1.95P AD=1.95P PS=7.3U
+ PD=7.3U
M$307 \$1107 \$1106 vdd vdd pfet_03v3 L=0.5U W=3U AS=1.95P AD=1.95P PS=7.3U
+ PD=7.3U
M$308 \$1225 \$1107 vdd vdd pfet_03v3 L=0.5U W=6U AS=2.73P AD=2.73P PS=10.82U
+ PD=10.82U
M$310 \$1226 \$1106 vdd vdd pfet_03v3 L=0.5U W=6U AS=2.73P AD=2.73P PS=10.82U
+ PD=10.82U
M$312 \$1226 \$1109 \$1025 vdd pfet_03v3 L=0.5U W=6U AS=2.73P AD=2.73P
+ PS=10.82U PD=10.82U
M$314 \$1225 \$1110 \$1025 vdd pfet_03v3 L=0.5U W=6U AS=2.73P AD=2.73P
+ PS=10.82U PD=10.82U
M$316 vdd \$1109 \$1110 vdd pfet_03v3 L=0.5U W=3U AS=1.95P AD=1.95P PS=7.3U
+ PD=7.3U
M$317 \$1112 \$1111 vdd vdd pfet_03v3 L=0.5U W=3U AS=1.95P AD=1.95P PS=7.3U
+ PD=7.3U
M$318 \$1227 \$1112 vdd vdd pfet_03v3 L=0.5U W=6U AS=2.73P AD=2.73P PS=10.82U
+ PD=10.82U
M$320 \$1228 \$1111 vdd vdd pfet_03v3 L=0.5U W=6U AS=2.73P AD=2.73P PS=10.82U
+ PD=10.82U
M$322 \$1228 \$1114 \$1027 vdd pfet_03v3 L=0.5U W=6U AS=2.73P AD=2.73P
+ PS=10.82U PD=10.82U
M$324 \$1227 \$1115 \$1027 vdd pfet_03v3 L=0.5U W=6U AS=2.73P AD=2.73P
+ PS=10.82U PD=10.82U
M$326 vdd \$1114 \$1115 vdd pfet_03v3 L=0.5U W=3U AS=1.95P AD=1.95P PS=7.3U
+ PD=7.3U
M$327 \$1117 \$1116 vdd vdd pfet_03v3 L=0.5U W=3U AS=1.95P AD=1.95P PS=7.3U
+ PD=7.3U
M$328 \$1229 \$1117 vdd vdd pfet_03v3 L=0.5U W=6U AS=2.73P AD=2.73P PS=10.82U
+ PD=10.82U
M$330 \$1230 \$1116 vdd vdd pfet_03v3 L=0.5U W=6U AS=2.73P AD=2.73P PS=10.82U
+ PD=10.82U
M$332 \$1230 \$1119 \$1029 vdd pfet_03v3 L=0.5U W=6U AS=2.73P AD=2.73P
+ PS=10.82U PD=10.82U
M$334 \$1229 \$1120 \$1029 vdd pfet_03v3 L=0.5U W=6U AS=2.73P AD=2.73P
+ PS=10.82U PD=10.82U
M$336 vdd \$1119 \$1120 vdd pfet_03v3 L=0.5U W=3U AS=1.95P AD=1.95P PS=7.3U
+ PD=7.3U
M$337 \$1122 \$1121 vdd vdd pfet_03v3 L=0.5U W=3U AS=1.95P AD=1.95P PS=7.3U
+ PD=7.3U
M$338 \$1231 \$1122 vdd vdd pfet_03v3 L=0.5U W=6U AS=2.73P AD=2.73P PS=10.82U
+ PD=10.82U
M$340 \$1232 \$1121 vdd vdd pfet_03v3 L=0.5U W=6U AS=2.73P AD=2.73P PS=10.82U
+ PD=10.82U
M$342 \$1232 \$1124 \$1031 vdd pfet_03v3 L=0.5U W=6U AS=2.73P AD=2.73P
+ PS=10.82U PD=10.82U
M$344 \$1231 \$1125 \$1031 vdd pfet_03v3 L=0.5U W=6U AS=2.73P AD=2.73P
+ PS=10.82U PD=10.82U
M$346 vdd \$1124 \$1125 vdd pfet_03v3 L=0.5U W=3U AS=1.95P AD=1.95P PS=7.3U
+ PD=7.3U
M$347 \$1127 \$1126 vdd vdd pfet_03v3 L=0.5U W=3U AS=1.95P AD=1.95P PS=7.3U
+ PD=7.3U
M$348 \$1233 \$1127 vdd vdd pfet_03v3 L=0.5U W=6U AS=2.73P AD=2.73P PS=10.82U
+ PD=10.82U
M$350 \$1234 \$1126 vdd vdd pfet_03v3 L=0.5U W=6U AS=2.73P AD=2.73P PS=10.82U
+ PD=10.82U
M$352 \$1234 \$1129 \$1033 vdd pfet_03v3 L=0.5U W=6U AS=2.73P AD=2.73P
+ PS=10.82U PD=10.82U
M$354 \$1233 \$1130 \$1033 vdd pfet_03v3 L=0.5U W=6U AS=2.73P AD=2.73P
+ PS=10.82U PD=10.82U
M$356 vdd \$1129 \$1130 vdd pfet_03v3 L=0.5U W=3U AS=1.95P AD=1.95P PS=7.3U
+ PD=7.3U
M$357 \$1132 \$1131 vdd vdd pfet_03v3 L=0.5U W=3U AS=1.95P AD=1.95P PS=7.3U
+ PD=7.3U
M$358 \$1235 \$1132 vdd vdd pfet_03v3 L=0.5U W=6U AS=2.73P AD=2.73P PS=10.82U
+ PD=10.82U
M$360 \$1236 \$1131 vdd vdd pfet_03v3 L=0.5U W=6U AS=2.73P AD=2.73P PS=10.82U
+ PD=10.82U
M$362 \$1236 \$1134 \$1035 vdd pfet_03v3 L=0.5U W=6U AS=2.73P AD=2.73P
+ PS=10.82U PD=10.82U
M$364 \$1235 \$1135 \$1035 vdd pfet_03v3 L=0.5U W=6U AS=2.73P AD=2.73P
+ PS=10.82U PD=10.82U
M$366 vdd \$1134 \$1135 vdd pfet_03v3 L=0.5U W=3U AS=1.95P AD=1.95P PS=7.3U
+ PD=7.3U
M$367 vdd \$1025 \$1136 vdd pfet_03v3 L=0.5U W=3U AS=1.95P AD=1.95P PS=7.3U
+ PD=7.3U
M$368 \$1136 \$1023 vdd vdd pfet_03v3 L=0.5U W=3U AS=1.95P AD=1.95P PS=7.3U
+ PD=7.3U
M$369 vdd \$1021 \$1137 vdd pfet_03v3 L=0.5U W=3U AS=1.95P AD=1.95P PS=7.3U
+ PD=7.3U
M$370 \$1137 \$1019 vdd vdd pfet_03v3 L=0.5U W=3U AS=1.95P AD=1.95P PS=7.3U
+ PD=7.3U
M$371 \$1237 \$1137 vdd vdd pfet_03v3 L=0.5U W=6U AS=2.73P AD=2.73P PS=10.82U
+ PD=10.82U
M$373 \$1237 \$1136 \$866 vdd pfet_03v3 L=0.5U W=6U AS=2.73P AD=2.73P PS=10.82U
+ PD=10.82U
M$375 vdd \$1035 \$1138 vdd pfet_03v3 L=0.5U W=3U AS=1.95P AD=1.95P PS=7.3U
+ PD=7.3U
M$376 \$1138 \$787 vdd vdd pfet_03v3 L=0.5U W=3U AS=1.95P AD=1.95P PS=7.3U
+ PD=7.3U
M$377 fout \$1138 vdd vdd pfet_03v3 L=0.5U W=3U AS=1.95P AD=1.95P PS=7.3U
+ PD=7.3U
M$378 \$1238 fout \$790 vdd pfet_03v3 L=0.5U W=6U AS=2.73P AD=2.73P PS=10.82U
+ PD=10.82U
M$380 \$1238 define vdd vdd pfet_03v3 L=0.5U W=6U AS=2.73P AD=2.73P PS=10.82U
+ PD=10.82U
M$382 \$1624 \$1442 vdd vdd pfet_03v3 L=0.5U W=3U AS=1.95P AD=1.95P PS=7.3U
+ PD=7.3U
M$383 \$1442 fin vdd vdd pfet_03v3 L=0.5U W=3U AS=1.95P AD=1.95P PS=7.3U PD=7.3U
M$384 \$1904 \$473 vdd vdd pfet_03v3 L=0.5U W=3U AS=1.95P AD=1.95P PS=7.3U
+ PD=7.3U
M$385 \$1444 \$1442 \$1443 vdd pfet_03v3 L=0.5U W=3U AS=1.95P AD=1.95P PS=7.3U
+ PD=7.3U
M$386 \$1443 \$1624 \$1904 vdd pfet_03v3 L=0.5U W=3U AS=1.95P AD=1.95P PS=7.3U
+ PD=7.3U
M$387 vdd \$1508 \$1444 vdd pfet_03v3 L=0.5U W=3U AS=1.95P AD=1.95P PS=7.3U
+ PD=7.3U
M$388 \$1508 \$1443 vdd vdd pfet_03v3 L=0.5U W=3U AS=1.95P AD=1.95P PS=7.3U
+ PD=7.3U
M$389 \$1444 \$1445 vdd vdd pfet_03v3 L=0.5U W=3U AS=1.95P AD=1.95P PS=7.3U
+ PD=7.3U
M$390 \$1446 \$1442 \$1508 vdd pfet_03v3 L=0.5U W=3U AS=1.95P AD=1.95P PS=7.3U
+ PD=7.3U
M$391 vdd vss \$1445 vdd pfet_03v3 L=0.5U W=3U AS=1.95P AD=1.95P PS=7.3U PD=7.3U
M$392 vdd \$1446 \$1509 vdd pfet_03v3 L=0.5U W=3U AS=1.95P AD=1.95P PS=7.3U
+ PD=7.3U
M$393 \$1447 \$1624 \$1446 vdd pfet_03v3 L=0.5U W=3U AS=1.95P AD=1.95P PS=7.3U
+ PD=7.3U
M$394 vdd \$1509 \$1447 vdd pfet_03v3 L=0.5U W=3U AS=1.95P AD=1.95P PS=7.3U
+ PD=7.3U
M$395 \$1509 \$1445 vdd vdd pfet_03v3 L=0.5U W=3U AS=1.95P AD=1.95P PS=7.3U
+ PD=7.3U
M$396 \$1448 \$1509 vdd vdd pfet_03v3 L=0.5U W=3U AS=1.95P AD=1.95P PS=7.3U
+ PD=7.3U
M$397 vdd \$1905 \$1513 vdd pfet_03v3 L=0.5U W=3U AS=1.95P AD=1.95P PS=7.3U
+ PD=7.3U
M$398 vdd \$473 \$1905 vdd pfet_03v3 L=0.5U W=3U AS=1.95P AD=1.95P PS=7.3U
+ PD=7.3U
M$399 \$1449 \$1448 vdd vdd pfet_03v3 L=0.5U W=6U AS=2.73P AD=2.73P PS=10.82U
+ PD=10.82U
M$401 \$1449 \$738 \$1450 vdd pfet_03v3 L=0.5U W=6U AS=2.73P AD=2.73P PS=10.82U
+ PD=10.82U
M$403 \$1905 \$1451 vdd vdd pfet_03v3 L=0.5U W=3U AS=1.95P AD=1.95P PS=7.3U
+ PD=7.3U
M$404 \$1451 \$1450 vdd vdd pfet_03v3 L=0.5U W=3U AS=1.95P AD=1.95P PS=7.3U
+ PD=7.3U
M$405 vdd \$473 \$1906 vdd pfet_03v3 L=0.5U W=3U AS=1.95P AD=1.95P PS=7.3U
+ PD=7.3U
M$406 vdd \$1510 \$473 vdd pfet_03v3 L=0.5U W=3U AS=1.95P AD=1.95P PS=7.3U
+ PD=7.3U
M$407 \$1907 \$473 vdd vdd pfet_03v3 L=0.5U W=3U AS=1.95P AD=1.95P PS=7.3U
+ PD=7.3U
M$408 \$1511 \$1636 \$1907 vdd pfet_03v3 L=0.5U W=3U AS=1.95P AD=1.95P PS=7.3U
+ PD=7.3U
M$409 \$473 \$1511 vdd vdd pfet_03v3 L=0.5U W=3U AS=1.95P AD=1.95P PS=7.3U
+ PD=7.3U
M$410 \$1510 vss vdd vdd pfet_03v3 L=0.5U W=3U AS=1.95P AD=1.95P PS=7.3U PD=7.3U
M$411 \$1452 \$1363 \$1511 vdd pfet_03v3 L=0.5U W=3U AS=1.95P AD=1.95P PS=7.3U
+ PD=7.3U
M$412 vdd \$1510 \$1908 vdd pfet_03v3 L=0.5U W=3U AS=1.95P AD=1.95P PS=7.3U
+ PD=7.3U
M$413 vdd \$1512 \$1452 vdd pfet_03v3 L=0.5U W=3U AS=1.95P AD=1.95P PS=7.3U
+ PD=7.3U
M$414 \$1453 \$1636 \$1512 vdd pfet_03v3 L=0.5U W=3U AS=1.95P AD=1.95P PS=7.3U
+ PD=7.3U
M$415 \$1908 \$1452 vdd vdd pfet_03v3 L=0.5U W=3U AS=1.95P AD=1.95P PS=7.3U
+ PD=7.3U
M$416 \$1512 \$1363 \$1908 vdd pfet_03v3 L=0.5U W=3U AS=1.95P AD=1.95P PS=7.3U
+ PD=7.3U
M$417 vdd \$1513 \$1453 vdd pfet_03v3 L=0.5U W=3U AS=1.95P AD=1.95P PS=7.3U
+ PD=7.3U
M$418 vdd fin \$1363 vdd pfet_03v3 L=0.5U W=3U AS=1.95P AD=1.95P PS=7.3U PD=7.3U
M$419 vdd \$1363 \$1636 vdd pfet_03v3 L=0.5U W=3U AS=1.95P AD=1.95P PS=7.3U
+ PD=7.3U
M$420 \$1625 \$1454 vdd vdd pfet_03v3 L=0.5U W=3U AS=1.95P AD=1.95P PS=7.3U
+ PD=7.3U
M$421 \$1454 \$473 vdd vdd pfet_03v3 L=0.5U W=3U AS=1.95P AD=1.95P PS=7.3U
+ PD=7.3U
M$422 \$1909 \$1515 vdd vdd pfet_03v3 L=0.5U W=3U AS=1.95P AD=1.95P PS=7.3U
+ PD=7.3U
M$423 \$1456 \$1454 \$1455 vdd pfet_03v3 L=0.5U W=3U AS=1.95P AD=1.95P PS=7.3U
+ PD=7.3U
M$424 vdd \$1514 \$1456 vdd pfet_03v3 L=0.5U W=3U AS=1.95P AD=1.95P PS=7.3U
+ PD=7.3U
M$425 \$1455 \$1625 \$1909 vdd pfet_03v3 L=0.5U W=3U AS=1.95P AD=1.95P PS=7.3U
+ PD=7.3U
M$426 \$1514 \$1455 vdd vdd pfet_03v3 L=0.5U W=3U AS=1.95P AD=1.95P PS=7.3U
+ PD=7.3U
M$427 \$1456 \$1457 vdd vdd pfet_03v3 L=0.5U W=3U AS=1.95P AD=1.95P PS=7.3U
+ PD=7.3U
M$428 \$1458 \$1454 \$1514 vdd pfet_03v3 L=0.5U W=3U AS=1.95P AD=1.95P PS=7.3U
+ PD=7.3U
M$429 vdd \$1 \$1457 vdd pfet_03v3 L=0.5U W=3U AS=1.95P AD=1.95P PS=7.3U PD=7.3U
M$430 vdd \$1458 \$1515 vdd pfet_03v3 L=0.5U W=3U AS=1.95P AD=1.95P PS=7.3U
+ PD=7.3U
M$431 \$1459 \$1625 \$1458 vdd pfet_03v3 L=0.5U W=3U AS=1.95P AD=1.95P PS=7.3U
+ PD=7.3U
M$432 vdd \$1515 \$1459 vdd pfet_03v3 L=0.5U W=3U AS=1.95P AD=1.95P PS=7.3U
+ PD=7.3U
M$433 \$1515 \$1457 vdd vdd pfet_03v3 L=0.5U W=3U AS=1.95P AD=1.95P PS=7.3U
+ PD=7.3U
M$434 \$1091 pd1 vdd vdd pfet_03v3 L=0.5U W=3U AS=1.95P AD=1.95P PS=7.3U PD=7.3U
M$435 \$1094 \$1515 vdd vdd pfet_03v3 L=0.5U W=3U AS=1.95P AD=1.95P PS=7.3U
+ PD=7.3U
M$436 \$1626 \$1460 vdd vdd pfet_03v3 L=0.5U W=3U AS=1.95P AD=1.95P PS=7.3U
+ PD=7.3U
M$437 \$1460 \$1094 vdd vdd pfet_03v3 L=0.5U W=3U AS=1.95P AD=1.95P PS=7.3U
+ PD=7.3U
M$438 \$1910 \$1517 vdd vdd pfet_03v3 L=0.5U W=3U AS=1.95P AD=1.95P PS=7.3U
+ PD=7.3U
M$439 \$1462 \$1460 \$1461 vdd pfet_03v3 L=0.5U W=3U AS=1.95P AD=1.95P PS=7.3U
+ PD=7.3U