* Extracted by KLayout with GF180MCU LVS runset on : 11/09/2025 00:52

.SUBCKT asc_dual_psd_def_20250809 sd9 sd8 sd7 sd6 sd5 sd4 sd3 sd2 sd1 vss fout
+ define fin pd1 pd2 pd3 pd4 pd5 pd6 pd7 pd8 pd9
M$1 \$544 sd9 \$76 \$544 pfet_03v3 L=0.5U W=3U AS=1.95P AD=1.95P PS=7.3U PD=7.3U
M$2 \$544 \$119 \$77 \$544 pfet_03v3 L=0.5U W=3U AS=1.95P AD=1.95P PS=7.3U
+ PD=7.3U
M$3 \$77 \$120 \$544 \$544 pfet_03v3 L=0.5U W=3U AS=1.95P AD=1.95P PS=7.3U
+ PD=7.3U
M$4 \$78 \$2 \$120 \$544 pfet_03v3 L=0.5U W=3U AS=1.95P AD=1.95P PS=7.3U PD=7.3U
M$5 \$544 \$121 \$78 \$544 pfet_03v3 L=0.5U W=3U AS=1.95P AD=1.95P PS=7.3U
+ PD=7.3U
M$6 \$80 \$79 \$121 \$544 pfet_03v3 L=0.5U W=3U AS=1.95P AD=1.95P PS=7.3U
+ PD=7.3U
M$7 \$544 \$77 \$80 \$544 pfet_03v3 L=0.5U W=3U AS=1.95P AD=1.95P PS=7.3U
+ PD=7.3U
M$8 \$544 \$2 \$79 \$544 pfet_03v3 L=0.5U W=3U AS=1.95P AD=1.95P PS=7.3U PD=7.3U
M$9 \$544 sd8 \$3 \$544 pfet_03v3 L=0.5U W=3U AS=1.95P AD=1.95P PS=7.3U PD=7.3U
M$10 \$544 \$447 \$81 \$544 pfet_03v3 L=0.5U W=3U AS=1.95P AD=1.95P PS=7.3U
+ PD=7.3U
M$11 \$81 \$123 \$544 \$544 pfet_03v3 L=0.5U W=3U AS=1.95P AD=1.95P PS=7.3U
+ PD=7.3U
M$12 \$82 \$4 \$123 \$544 pfet_03v3 L=0.5U W=3U AS=1.95P AD=1.95P PS=7.3U
+ PD=7.3U
M$13 \$544 \$124 \$82 \$544 pfet_03v3 L=0.5U W=3U AS=1.95P AD=1.95P PS=7.3U
+ PD=7.3U
M$14 \$84 \$83 \$124 \$544 pfet_03v3 L=0.5U W=3U AS=1.95P AD=1.95P PS=7.3U
+ PD=7.3U
M$15 \$544 \$81 \$84 \$544 pfet_03v3 L=0.5U W=3U AS=1.95P AD=1.95P PS=7.3U
+ PD=7.3U
M$16 \$544 \$4 \$83 \$544 pfet_03v3 L=0.5U W=3U AS=1.95P AD=1.95P PS=7.3U
+ PD=7.3U
M$17 \$544 sd7 \$85 \$544 pfet_03v3 L=0.5U W=3U AS=1.95P AD=1.95P PS=7.3U
+ PD=7.3U
M$18 \$544 \$126 \$86 \$544 pfet_03v3 L=0.5U W=3U AS=1.95P AD=1.95P PS=7.3U
+ PD=7.3U
M$19 \$86 \$127 \$544 \$544 pfet_03v3 L=0.5U W=3U AS=1.95P AD=1.95P PS=7.3U
+ PD=7.3U
M$20 \$87 \$5 \$127 \$544 pfet_03v3 L=0.5U W=3U AS=1.95P AD=1.95P PS=7.3U
+ PD=7.3U
M$21 \$544 \$128 \$87 \$544 pfet_03v3 L=0.5U W=3U AS=1.95P AD=1.95P PS=7.3U
+ PD=7.3U
M$22 \$89 \$88 \$128 \$544 pfet_03v3 L=0.5U W=3U AS=1.95P AD=1.95P PS=7.3U
+ PD=7.3U
M$23 \$544 \$86 \$89 \$544 pfet_03v3 L=0.5U W=3U AS=1.95P AD=1.95P PS=7.3U
+ PD=7.3U
M$24 \$544 \$5 \$88 \$544 pfet_03v3 L=0.5U W=3U AS=1.95P AD=1.95P PS=7.3U
+ PD=7.3U
M$25 \$544 sd6 \$90 \$544 pfet_03v3 L=0.5U W=3U AS=1.95P AD=1.95P PS=7.3U
+ PD=7.3U
M$26 \$544 \$130 \$91 \$544 pfet_03v3 L=0.5U W=3U AS=1.95P AD=1.95P PS=7.3U
+ PD=7.3U
M$27 \$91 \$131 \$544 \$544 pfet_03v3 L=0.5U W=3U AS=1.95P AD=1.95P PS=7.3U
+ PD=7.3U
M$28 \$92 \$6 \$131 \$544 pfet_03v3 L=0.5U W=3U AS=1.95P AD=1.95P PS=7.3U
+ PD=7.3U
M$29 \$544 \$132 \$92 \$544 pfet_03v3 L=0.5U W=3U AS=1.95P AD=1.95P PS=7.3U
+ PD=7.3U
M$30 \$94 \$93 \$132 \$544 pfet_03v3 L=0.5U W=3U AS=1.95P AD=1.95P PS=7.3U
+ PD=7.3U
M$31 \$544 \$91 \$94 \$544 pfet_03v3 L=0.5U W=3U AS=1.95P AD=1.95P PS=7.3U
+ PD=7.3U
M$32 \$544 \$6 \$93 \$544 pfet_03v3 L=0.5U W=3U AS=1.95P AD=1.95P PS=7.3U
+ PD=7.3U
M$33 \$544 sd5 \$7 \$544 pfet_03v3 L=0.5U W=3U AS=1.95P AD=1.95P PS=7.3U PD=7.3U
M$34 \$544 \$135 \$134 \$544 pfet_03v3 L=0.5U W=3U AS=1.95P AD=1.95P PS=7.3U
+ PD=7.3U
M$35 \$134 \$136 \$544 \$544 pfet_03v3 L=0.5U W=3U AS=1.95P AD=1.95P PS=7.3U
+ PD=7.3U
M$36 \$95 \$8 \$136 \$544 pfet_03v3 L=0.5U W=3U AS=1.95P AD=1.95P PS=7.3U
+ PD=7.3U
M$37 \$544 \$137 \$95 \$544 pfet_03v3 L=0.5U W=3U AS=1.95P AD=1.95P PS=7.3U
+ PD=7.3U
M$38 \$97 \$96 \$137 \$544 pfet_03v3 L=0.5U W=3U AS=1.95P AD=1.95P PS=7.3U
+ PD=7.3U
M$39 \$544 \$134 \$97 \$544 pfet_03v3 L=0.5U W=3U AS=1.95P AD=1.95P PS=7.3U
+ PD=7.3U
M$40 \$544 \$8 \$96 \$544 pfet_03v3 L=0.5U W=3U AS=1.95P AD=1.95P PS=7.3U
+ PD=7.3U
M$41 \$544 sd4 \$98 \$544 pfet_03v3 L=0.5U W=3U AS=1.95P AD=1.95P PS=7.3U
+ PD=7.3U
M$42 \$544 \$139 \$99 \$544 pfet_03v3 L=0.5U W=3U AS=1.95P AD=1.95P PS=7.3U
+ PD=7.3U
M$43 \$99 \$140 \$544 \$544 pfet_03v3 L=0.5U W=3U AS=1.95P AD=1.95P PS=7.3U
+ PD=7.3U
M$44 \$100 \$9 \$140 \$544 pfet_03v3 L=0.5U W=3U AS=1.95P AD=1.95P PS=7.3U
+ PD=7.3U
M$45 \$544 \$141 \$100 \$544 pfet_03v3 L=0.5U W=3U AS=1.95P AD=1.95P PS=7.3U
+ PD=7.3U
M$46 \$102 \$101 \$141 \$544 pfet_03v3 L=0.5U W=3U AS=1.95P AD=1.95P PS=7.3U
+ PD=7.3U
M$47 \$544 \$99 \$102 \$544 pfet_03v3 L=0.5U W=3U AS=1.95P AD=1.95P PS=7.3U
+ PD=7.3U
M$48 \$544 \$9 \$101 \$544 pfet_03v3 L=0.5U W=3U AS=1.95P AD=1.95P PS=7.3U
+ PD=7.3U
M$49 \$544 sd3 \$103 \$544 pfet_03v3 L=0.5U W=3U AS=1.95P AD=1.95P PS=7.3U
+ PD=7.3U
M$50 \$544 \$143 \$104 \$544 pfet_03v3 L=0.5U W=3U AS=1.95P AD=1.95P PS=7.3U
+ PD=7.3U
M$51 \$104 \$144 \$544 \$544 pfet_03v3 L=0.5U W=3U AS=1.95P AD=1.95P PS=7.3U
+ PD=7.3U
M$52 \$105 \$10 \$144 \$544 pfet_03v3 L=0.5U W=3U AS=1.95P AD=1.95P PS=7.3U
+ PD=7.3U
M$53 \$544 \$145 \$105 \$544 pfet_03v3 L=0.5U W=3U AS=1.95P AD=1.95P PS=7.3U
+ PD=7.3U
M$54 \$107 \$106 \$145 \$544 pfet_03v3 L=0.5U W=3U AS=1.95P AD=1.95P PS=7.3U
+ PD=7.3U
M$55 \$544 \$104 \$107 \$544 pfet_03v3 L=0.5U W=3U AS=1.95P AD=1.95P PS=7.3U
+ PD=7.3U
M$56 \$544 \$10 \$106 \$544 pfet_03v3 L=0.5U W=3U AS=1.95P AD=1.95P PS=7.3U
+ PD=7.3U
M$57 \$544 sd2 \$108 \$544 pfet_03v3 L=0.5U W=3U AS=1.95P AD=1.95P PS=7.3U
+ PD=7.3U
M$58 \$544 \$466 \$109 \$544 pfet_03v3 L=0.5U W=3U AS=1.95P AD=1.95P PS=7.3U
+ PD=7.3U
M$59 \$109 \$147 \$544 \$544 pfet_03v3 L=0.5U W=3U AS=1.95P AD=1.95P PS=7.3U
+ PD=7.3U
M$60 \$110 \$11 \$147 \$544 pfet_03v3 L=0.5U W=3U AS=1.95P AD=1.95P PS=7.3U
+ PD=7.3U
M$61 \$544 \$148 \$110 \$544 pfet_03v3 L=0.5U W=3U AS=1.95P AD=1.95P PS=7.3U
+ PD=7.3U
M$62 \$112 \$111 \$148 \$544 pfet_03v3 L=0.5U W=3U AS=1.95P AD=1.95P PS=7.3U
+ PD=7.3U
M$63 \$544 \$109 \$112 \$544 pfet_03v3 L=0.5U W=3U AS=1.95P AD=1.95P PS=7.3U
+ PD=7.3U
M$64 \$544 \$11 \$111 \$544 pfet_03v3 L=0.5U W=3U AS=1.95P AD=1.95P PS=7.3U
+ PD=7.3U
M$65 \$544 sd1 \$113 \$544 pfet_03v3 L=0.5U W=3U AS=1.95P AD=1.95P PS=7.3U
+ PD=7.3U
M$66 \$544 \$150 \$114 \$544 pfet_03v3 L=0.5U W=3U AS=1.95P AD=1.95P PS=7.3U
+ PD=7.3U
M$67 \$114 \$151 \$544 \$544 pfet_03v3 L=0.5U W=3U AS=1.95P AD=1.95P PS=7.3U
+ PD=7.3U
M$68 \$115 \$12 \$151 \$544 pfet_03v3 L=0.5U W=3U AS=1.95P AD=1.95P PS=7.3U
+ PD=7.3U
M$69 \$544 \$152 \$115 \$544 pfet_03v3 L=0.5U W=3U AS=1.95P AD=1.95P PS=7.3U
+ PD=7.3U
M$70 \$117 \$116 \$152 \$544 pfet_03v3 L=0.5U W=3U AS=1.95P AD=1.95P PS=7.3U
+ PD=7.3U
M$71 \$544 \$114 \$117 \$544 pfet_03v3 L=0.5U W=3U AS=1.95P AD=1.95P PS=7.3U
+ PD=7.3U
M$72 \$544 \$12 \$116 \$544 pfet_03v3 L=0.5U W=3U AS=1.95P AD=1.95P PS=7.3U
+ PD=7.3U
M$73 \$544 \$77 \$442 \$544 pfet_03v3 L=0.5U W=3U AS=1.95P AD=1.95P PS=7.3U
+ PD=7.3U
M$74 \$443 \$77 \$544 \$544 pfet_03v3 L=0.5U W=3U AS=1.95P AD=1.95P PS=7.3U
+ PD=7.3U
M$75 \$120 \$79 \$443 \$544 pfet_03v3 L=0.5U W=3U AS=1.95P AD=1.95P PS=7.3U
+ PD=7.3U
M$76 \$119 \$1 \$544 \$544 pfet_03v3 L=0.5U W=3U AS=1.95P AD=1.95P PS=7.3U
+ PD=7.3U
M$77 \$544 \$119 \$444 \$544 pfet_03v3 L=0.5U W=3U AS=1.95P AD=1.95P PS=7.3U
+ PD=7.3U
M$78 \$444 \$78 \$544 \$544 pfet_03v3 L=0.5U W=3U AS=1.95P AD=1.95P PS=7.3U
+ PD=7.3U
M$79 \$121 \$2 \$444 \$544 pfet_03v3 L=0.5U W=3U AS=1.95P AD=1.95P PS=7.3U
+ PD=7.3U
M$80 \$544 \$445 \$2 \$544 pfet_03v3 L=0.5U W=3U AS=1.95P AD=1.95P PS=7.3U
+ PD=7.3U
M$81 \$544 \$81 \$445 \$544 pfet_03v3 L=0.5U W=3U AS=1.95P AD=1.95P PS=7.3U
+ PD=7.3U
M$82 \$446 \$81 \$544 \$544 pfet_03v3 L=0.5U W=3U AS=1.95P AD=1.95P PS=7.3U
+ PD=7.3U
M$83 \$123 \$83 \$446 \$544 pfet_03v3 L=0.5U W=3U AS=1.95P AD=1.95P PS=7.3U
+ PD=7.3U
M$84 \$447 \$1 \$544 \$544 pfet_03v3 L=0.5U W=3U AS=1.95P AD=1.95P PS=7.3U
+ PD=7.3U
M$85 \$544 \$447 \$448 \$544 pfet_03v3 L=0.5U W=3U AS=1.95P AD=1.95P PS=7.3U
+ PD=7.3U
M$86 \$448 \$82 \$544 \$544 pfet_03v3 L=0.5U W=3U AS=1.95P AD=1.95P PS=7.3U
+ PD=7.3U
M$87 \$124 \$4 \$448 \$544 pfet_03v3 L=0.5U W=3U AS=1.95P AD=1.95P PS=7.3U
+ PD=7.3U
M$88 \$544 \$449 \$4 \$544 pfet_03v3 L=0.5U W=3U AS=1.95P AD=1.95P PS=7.3U
+ PD=7.3U
M$89 \$544 \$86 \$449 \$544 pfet_03v3 L=0.5U W=3U AS=1.95P AD=1.95P PS=7.3U
+ PD=7.3U
M$90 \$450 \$86 \$544 \$544 pfet_03v3 L=0.5U W=3U AS=1.95P AD=1.95P PS=7.3U
+ PD=7.3U
M$91 \$127 \$88 \$450 \$544 pfet_03v3 L=0.5U W=3U AS=1.95P AD=1.95P PS=7.3U
+ PD=7.3U
M$92 \$126 \$1 \$544 \$544 pfet_03v3 L=0.5U W=3U AS=1.95P AD=1.95P PS=7.3U
+ PD=7.3U
M$93 \$544 \$126 \$451 \$544 pfet_03v3 L=0.5U W=3U AS=1.95P AD=1.95P PS=7.3U
+ PD=7.3U
M$94 \$451 \$87 \$544 \$544 pfet_03v3 L=0.5U W=3U AS=1.95P AD=1.95P PS=7.3U
+ PD=7.3U
M$95 \$128 \$5 \$451 \$544 pfet_03v3 L=0.5U W=3U AS=1.95P AD=1.95P PS=7.3U
+ PD=7.3U
M$96 \$544 \$452 \$5 \$544 pfet_03v3 L=0.5U W=3U AS=1.95P AD=1.95P PS=7.3U
+ PD=7.3U
M$97 \$544 \$91 \$452 \$544 pfet_03v3 L=0.5U W=3U AS=1.95P AD=1.95P PS=7.3U
+ PD=7.3U
M$98 \$453 \$91 \$544 \$544 pfet_03v3 L=0.5U W=3U AS=1.95P AD=1.95P PS=7.3U
+ PD=7.3U
M$99 \$131 \$93 \$453 \$544 pfet_03v3 L=0.5U W=3U AS=1.95P AD=1.95P PS=7.3U
+ PD=7.3U
M$100 \$130 \$1 \$544 \$544 pfet_03v3 L=0.5U W=3U AS=1.95P AD=1.95P PS=7.3U
+ PD=7.3U
M$101 \$544 \$130 \$454 \$544 pfet_03v3 L=0.5U W=3U AS=1.95P AD=1.95P PS=7.3U
+ PD=7.3U
M$102 \$454 \$92 \$544 \$544 pfet_03v3 L=0.5U W=3U AS=1.95P AD=1.95P PS=7.3U
+ PD=7.3U
M$103 \$132 \$6 \$454 \$544 pfet_03v3 L=0.5U W=3U AS=1.95P AD=1.95P PS=7.3U
+ PD=7.3U
M$104 \$544 \$455 \$6 \$544 pfet_03v3 L=0.5U W=3U AS=1.95P AD=1.95P PS=7.3U
+ PD=7.3U
M$105 \$544 \$134 \$455 \$544 pfet_03v3 L=0.5U W=3U AS=1.95P AD=1.95P PS=7.3U
+ PD=7.3U
M$106 \$456 \$134 \$544 \$544 pfet_03v3 L=0.5U W=3U AS=1.95P AD=1.95P PS=7.3U
+ PD=7.3U
M$107 \$136 \$96 \$456 \$544 pfet_03v3 L=0.5U W=3U AS=1.95P AD=1.95P PS=7.3U
+ PD=7.3U
M$108 \$135 \$1 \$544 \$544 pfet_03v3 L=0.5U W=3U AS=1.95P AD=1.95P PS=7.3U
+ PD=7.3U
M$109 \$544 \$135 \$457 \$544 pfet_03v3 L=0.5U W=3U AS=1.95P AD=1.95P PS=7.3U
+ PD=7.3U
M$110 \$457 \$95 \$544 \$544 pfet_03v3 L=0.5U W=3U AS=1.95P AD=1.95P PS=7.3U
+ PD=7.3U
M$111 \$137 \$8 \$457 \$544 pfet_03v3 L=0.5U W=3U AS=1.95P AD=1.95P PS=7.3U
+ PD=7.3U
M$112 \$544 \$458 \$8 \$544 pfet_03v3 L=0.5U W=3U AS=1.95P AD=1.95P PS=7.3U
+ PD=7.3U
M$113 \$544 \$99 \$458 \$544 pfet_03v3 L=0.5U W=3U AS=1.95P AD=1.95P PS=7.3U
+ PD=7.3U
M$114 \$459 \$99 \$544 \$544 pfet_03v3 L=0.5U W=3U AS=1.95P AD=1.95P PS=7.3U
+ PD=7.3U
M$115 \$140 \$101 \$459 \$544 pfet_03v3 L=0.5U W=3U AS=1.95P AD=1.95P PS=7.3U
+ PD=7.3U
M$116 \$139 \$1 \$544 \$544 pfet_03v3 L=0.5U W=3U AS=1.95P AD=1.95P PS=7.3U
+ PD=7.3U
M$117 \$544 \$139 \$460 \$544 pfet_03v3 L=0.5U W=3U AS=1.95P AD=1.95P PS=7.3U
+ PD=7.3U
M$118 \$460 \$100 \$544 \$544 pfet_03v3 L=0.5U W=3U AS=1.95P AD=1.95P PS=7.3U
+ PD=7.3U
M$119 \$141 \$9 \$460 \$544 pfet_03v3 L=0.5U W=3U AS=1.95P AD=1.95P PS=7.3U
+ PD=7.3U
M$120 \$544 \$461 \$9 \$544 pfet_03v3 L=0.5U W=3U AS=1.95P AD=1.95P PS=7.3U
+ PD=7.3U
M$121 \$544 \$104 \$461 \$544 pfet_03v3 L=0.5U W=3U AS=1.95P AD=1.95P PS=7.3U
+ PD=7.3U
M$122 \$462 \$104 \$544 \$544 pfet_03v3 L=0.5U W=3U AS=1.95P AD=1.95P PS=7.3U
+ PD=7.3U
M$123 \$144 \$106 \$462 \$544 pfet_03v3 L=0.5U W=3U AS=1.95P AD=1.95P PS=7.3U
+ PD=7.3U
M$124 \$143 \$1 \$544 \$544 pfet_03v3 L=0.5U W=3U AS=1.95P AD=1.95P PS=7.3U
+ PD=7.3U
M$125 \$544 \$143 \$463 \$544 pfet_03v3 L=0.5U W=3U AS=1.95P AD=1.95P PS=7.3U
+ PD=7.3U
M$126 \$463 \$105 \$544 \$544 pfet_03v3 L=0.5U W=3U AS=1.95P AD=1.95P PS=7.3U
+ PD=7.3U
M$127 \$145 \$10 \$463 \$544 pfet_03v3 L=0.5U W=3U AS=1.95P AD=1.95P PS=7.3U
+ PD=7.3U
M$128 \$544 \$464 \$10 \$544 pfet_03v3 L=0.5U W=3U AS=1.95P AD=1.95P PS=7.3U
+ PD=7.3U
M$129 \$544 \$109 \$464 \$544 pfet_03v3 L=0.5U W=3U AS=1.95P AD=1.95P PS=7.3U
+ PD=7.3U
M$130 \$465 \$109 \$544 \$544 pfet_03v3 L=0.5U W=3U AS=1.95P AD=1.95P PS=7.3U
+ PD=7.3U
M$131 \$147 \$111 \$465 \$544 pfet_03v3 L=0.5U W=3U AS=1.95P AD=1.95P PS=7.3U
+ PD=7.3U
M$132 \$466 \$1 \$544 \$544 pfet_03v3 L=0.5U W=3U AS=1.95P AD=1.95P PS=7.3U
+ PD=7.3U
M$133 \$544 \$466 \$467 \$544 pfet_03v3 L=0.5U W=3U AS=1.95P AD=1.95P PS=7.3U
+ PD=7.3U
M$134 \$467 \$110 \$544 \$544 pfet_03v3 L=0.5U W=3U AS=1.95P AD=1.95P PS=7.3U
+ PD=7.3U
M$135 \$148 \$11 \$467 \$544 pfet_03v3 L=0.5U W=3U AS=1.95P AD=1.95P PS=7.3U
+ PD=7.3U
M$136 \$544 \$468 \$11 \$544 pfet_03v3 L=0.5U W=3U AS=1.95P AD=1.95P PS=7.3U
+ PD=7.3U
M$137 \$544 \$114 \$468 \$544 pfet_03v3 L=0.5U W=3U AS=1.95P AD=1.95P PS=7.3U
+ PD=7.3U
M$138 \$469 \$114 \$544 \$544 pfet_03v3 L=0.5U W=3U AS=1.95P AD=1.95P PS=7.3U
+ PD=7.3U
M$139 \$151 \$116 \$469 \$544 pfet_03v3 L=0.5U W=3U AS=1.95P AD=1.95P PS=7.3U
+ PD=7.3U
M$140 \$150 \$1 \$544 \$544 pfet_03v3 L=0.5U W=3U AS=1.95P AD=1.95P PS=7.3U
+ PD=7.3U
M$141 \$544 \$150 \$470 \$544 pfet_03v3 L=0.5U W=3U AS=1.95P AD=1.95P PS=7.3U
+ PD=7.3U
M$142 \$470 \$115 \$544 \$544 pfet_03v3 L=0.5U W=3U AS=1.95P AD=1.95P PS=7.3U
+ PD=7.3U
M$143 \$152 \$12 \$470 \$544 pfet_03v3 L=0.5U W=3U AS=1.95P AD=1.95P PS=7.3U
+ PD=7.3U
M$144 \$544 \$471 \$12 \$544 pfet_03v3 L=0.5U W=3U AS=1.95P AD=1.95P PS=7.3U
+ PD=7.3U
M$145 \$738 \$787 \$737 \$544 pfet_03v3 L=0.5U W=6U AS=2.73P AD=2.73P PS=10.82U
+ PD=10.82U
M$147 \$738 \$1 \$544 \$544 pfet_03v3 L=0.5U W=6U AS=2.73P AD=2.73P PS=10.82U
+ PD=10.82U
M$149 \$544 \$740 \$739 \$544 pfet_03v3 L=0.5U W=3U AS=1.95P AD=1.95P PS=7.3U
+ PD=7.3U
M$150 \$544 \$788 \$740 \$544 pfet_03v3 L=0.5U W=3U AS=1.95P AD=1.95P PS=7.3U
+ PD=7.3U
M$151 \$740 \$680 \$544 \$544 pfet_03v3 L=0.5U W=3U AS=1.95P AD=1.95P PS=7.3U
+ PD=7.3U
M$152 \$742 \$744 \$741 \$544 pfet_03v3 L=0.5U W=6U AS=2.73P AD=2.73P PS=10.82U
+ PD=10.82U
M$154 \$742 \$743 \$544 \$544 pfet_03v3 L=0.5U W=6U AS=2.73P AD=2.73P PS=10.82U
+ PD=10.82U
M$156 \$544 \$688 \$743 \$544 pfet_03v3 L=0.5U W=3U AS=1.95P AD=1.95P PS=7.3U
+ PD=7.3U
M$157 \$743 \$687 \$544 \$544 pfet_03v3 L=0.5U W=3U AS=1.95P AD=1.95P PS=7.3U
+ PD=7.3U
M$158 \$544 \$686 \$744 \$544 pfet_03v3 L=0.5U W=3U AS=1.95P AD=1.95P PS=7.3U
+ PD=7.3U
M$159 \$744 \$685 \$544 \$544 pfet_03v3 L=0.5U W=3U AS=1.95P AD=1.95P PS=7.3U
+ PD=7.3U
M$160 \$745 \$442 \$544 \$544 pfet_03v3 L=0.5U W=3U AS=1.95P AD=1.95P PS=7.3U
+ PD=7.3U
M$161 \$746 \$745 \$680 \$544 pfet_03v3 L=0.5U W=6U AS=2.73P AD=2.73P PS=10.82U
+ PD=10.82U
M$163 \$747 \$442 \$680 \$544 pfet_03v3 L=0.5U W=6U AS=2.73P AD=2.73P PS=10.82U
+ PD=10.82U
M$165 \$747 \$76 \$544 \$544 pfet_03v3 L=0.5U W=6U AS=2.73P AD=2.73P PS=10.82U
+ PD=10.82U
M$167 \$746 \$748 \$544 \$544 pfet_03v3 L=0.5U W=6U AS=2.73P AD=2.73P PS=10.82U
+ PD=10.82U
M$169 \$544 \$76 \$748 \$544 pfet_03v3 L=0.5U W=3U AS=1.95P AD=1.95P PS=7.3U
+ PD=7.3U
M$170 \$749 \$445 \$544 \$544 pfet_03v3 L=0.5U W=3U AS=1.95P AD=1.95P PS=7.3U
+ PD=7.3U
M$171 \$750 \$749 \$681 \$544 pfet_03v3 L=0.5U W=6U AS=2.73P AD=2.73P PS=10.82U
+ PD=10.82U
M$173 \$751 \$445 \$681 \$544 pfet_03v3 L=0.5U W=6U AS=2.73P AD=2.73P PS=10.82U
+ PD=10.82U
M$175 \$751 \$3 \$544 \$544 pfet_03v3 L=0.5U W=6U AS=2.73P AD=2.73P PS=10.82U
+ PD=10.82U
M$177 \$750 \$752 \$544 \$544 pfet_03v3 L=0.5U W=6U AS=2.73P AD=2.73P PS=10.82U
+ PD=10.82U
M$179 \$544 \$3 \$752 \$544 pfet_03v3 L=0.5U W=3U AS=1.95P AD=1.95P PS=7.3U
+ PD=7.3U
M$180 \$753 \$449 \$544 \$544 pfet_03v3 L=0.5U W=3U AS=1.95P AD=1.95P PS=7.3U
+ PD=7.3U
M$181 \$754 \$753 \$682 \$544 pfet_03v3 L=0.5U W=6U AS=2.73P AD=2.73P PS=10.82U
+ PD=10.82U
M$183 \$755 \$449 \$682 \$544 pfet_03v3 L=0.5U W=6U AS=2.73P AD=2.73P PS=10.82U
+ PD=10.82U
M$185 \$755 \$85 \$544 \$544 pfet_03v3 L=0.5U W=6U AS=2.73P AD=2.73P PS=10.82U
+ PD=10.82U
M$187 \$754 \$756 \$544 \$544 pfet_03v3 L=0.5U W=6U AS=2.73P AD=2.73P PS=10.82U
+ PD=10.82U
M$189 \$544 \$85 \$756 \$544 pfet_03v3 L=0.5U W=3U AS=1.95P AD=1.95P PS=7.3U
+ PD=7.3U
M$190 \$757 \$452 \$544 \$544 pfet_03v3 L=0.5U W=3U AS=1.95P AD=1.95P PS=7.3U
+ PD=7.3U
M$191 \$758 \$757 \$683 \$544 pfet_03v3 L=0.5U W=6U AS=2.73P AD=2.73P PS=10.82U
+ PD=10.82U
M$193 \$759 \$452 \$683 \$544 pfet_03v3 L=0.5U W=6U AS=2.73P AD=2.73P PS=10.82U
+ PD=10.82U
M$195 \$759 \$90 \$544 \$544 pfet_03v3 L=0.5U W=6U AS=2.73P AD=2.73P PS=10.82U
+ PD=10.82U
M$197 \$758 \$760 \$544 \$544 pfet_03v3 L=0.5U W=6U AS=2.73P AD=2.73P PS=10.82U
+ PD=10.82U
M$199 \$544 \$90 \$760 \$544 pfet_03v3 L=0.5U W=3U AS=1.95P AD=1.95P PS=7.3U
+ PD=7.3U
M$200 \$761 \$455 \$544 \$544 pfet_03v3 L=0.5U W=3U AS=1.95P AD=1.95P PS=7.3U
+ PD=7.3U
M$201 \$762 \$761 \$684 \$544 pfet_03v3 L=0.5U W=6U AS=2.73P AD=2.73P PS=10.82U
+ PD=10.82U
M$203 \$763 \$455 \$684 \$544 pfet_03v3 L=0.5U W=6U AS=2.73P AD=2.73P PS=10.82U
+ PD=10.82U
M$205 \$763 \$7 \$544 \$544 pfet_03v3 L=0.5U W=6U AS=2.73P AD=2.73P PS=10.82U
+ PD=10.82U
M$207 \$762 \$764 \$544 \$544 pfet_03v3 L=0.5U W=6U AS=2.73P AD=2.73P PS=10.82U
+ PD=10.82U
M$209 \$544 \$7 \$764 \$544 pfet_03v3 L=0.5U W=3U AS=1.95P AD=1.95P PS=7.3U
+ PD=7.3U
M$210 \$765 \$458 \$544 \$544 pfet_03v3 L=0.5U W=3U AS=1.95P AD=1.95P PS=7.3U
+ PD=7.3U
M$211 \$766 \$765 \$685 \$544 pfet_03v3 L=0.5U W=6U AS=2.73P AD=2.73P PS=10.82U
+ PD=10.82U
M$213 \$767 \$458 \$685 \$544 pfet_03v3 L=0.5U W=6U AS=2.73P AD=2.73P PS=10.82U
+ PD=10.82U
M$215 \$767 \$98 \$544 \$544 pfet_03v3 L=0.5U W=6U AS=2.73P AD=2.73P PS=10.82U
+ PD=10.82U
M$217 \$766 \$768 \$544 \$544 pfet_03v3 L=0.5U W=6U AS=2.73P AD=2.73P PS=10.82U
+ PD=10.82U
M$219 \$544 \$98 \$768 \$544 pfet_03v3 L=0.5U W=3U AS=1.95P AD=1.95P PS=7.3U
+ PD=7.3U
M$220 \$769 \$461 \$544 \$544 pfet_03v3 L=0.5U W=3U AS=1.95P AD=1.95P PS=7.3U
+ PD=7.3U
M$221 \$770 \$769 \$686 \$544 pfet_03v3 L=0.5U W=6U AS=2.73P AD=2.73P PS=10.82U
+ PD=10.82U
M$223 \$771 \$461 \$686 \$544 pfet_03v3 L=0.5U W=6U AS=2.73P AD=2.73P PS=10.82U
+ PD=10.82U
M$225 \$771 \$103 \$544 \$544 pfet_03v3 L=0.5U W=6U AS=2.73P AD=2.73P PS=10.82U
+ PD=10.82U
M$227 \$770 \$772 \$544 \$544 pfet_03v3 L=0.5U W=6U AS=2.73P AD=2.73P PS=10.82U
+ PD=10.82U
M$229 \$544 \$103 \$772 \$544 pfet_03v3 L=0.5U W=3U AS=1.95P AD=1.95P PS=7.3U
+ PD=7.3U
M$230 \$773 \$464 \$544 \$544 pfet_03v3 L=0.5U W=3U AS=1.95P AD=1.95P PS=7.3U
+ PD=7.3U
M$231 \$774 \$773 \$687 \$544 pfet_03v3 L=0.5U W=6U AS=2.73P AD=2.73P PS=10.82U
+ PD=10.82U
M$233 \$775 \$464 \$687 \$544 pfet_03v3 L=0.5U W=6U AS=2.73P AD=2.73P PS=10.82U
+ PD=10.82U
M$235 \$775 \$108 \$544 \$544 pfet_03v3 L=0.5U W=6U AS=2.73P AD=2.73P PS=10.82U
+ PD=10.82U
M$237 \$774 \$776 \$544 \$544 pfet_03v3 L=0.5U W=6U AS=2.73P AD=2.73P PS=10.82U
+ PD=10.82U
M$239 \$544 \$108 \$776 \$544 pfet_03v3 L=0.5U W=3U AS=1.95P AD=1.95P PS=7.3U
+ PD=7.3U
M$240 \$777 \$468 \$544 \$544 pfet_03v3 L=0.5U W=3U AS=1.95P AD=1.95P PS=7.3U
+ PD=7.3U
M$241 \$778 \$777 \$688 \$544 pfet_03v3 L=0.5U W=6U AS=2.73P AD=2.73P PS=10.82U
+ PD=10.82U
M$243 \$779 \$468 \$688 \$544 pfet_03v3 L=0.5U W=6U AS=2.73P AD=2.73P PS=10.82U
+ PD=10.82U
M$245 \$779 \$113 \$544 \$544 pfet_03v3 L=0.5U W=6U AS=2.73P AD=2.73P PS=10.82U
+ PD=10.82U
M$247 \$778 \$780 \$544 \$544 pfet_03v3 L=0.5U W=6U AS=2.73P AD=2.73P PS=10.82U
+ PD=10.82U
M$249 \$544 \$113 \$780 \$544 pfet_03v3 L=0.5U W=3U AS=1.95P AD=1.95P PS=7.3U
+ PD=7.3U
M$250 \$544 \$1081 \$781 \$544 pfet_03v3 L=0.5U W=3U AS=1.95P AD=1.95P PS=7.3U
+ PD=7.3U
M$251 \$781 \$1079 \$544 \$544 pfet_03v3 L=0.5U W=3U AS=1.95P AD=1.95P PS=7.3U
+ PD=7.3U
M$252 \$544 \$1077 \$782 \$544 pfet_03v3 L=0.5U W=3U AS=1.95P AD=1.95P PS=7.3U
+ PD=7.3U
M$253 \$782 \$1075 \$544 \$544 pfet_03v3 L=0.5U W=3U AS=1.95P AD=1.95P PS=7.3U
+ PD=7.3U
M$254 \$783 \$782 \$544 \$544 pfet_03v3 L=0.5U W=6U AS=2.73P AD=2.73P PS=10.82U
+ PD=10.82U
M$256 \$783 \$781 \$784 \$544 pfet_03v3 L=0.5U W=6U AS=2.73P AD=2.73P PS=10.82U
+ PD=10.82U
M$258 \$544 \$784 \$785 \$544 pfet_03v3 L=0.5U W=3U AS=1.95P AD=1.95P PS=7.3U
+ PD=7.3U
M$259 \$785 \$865 \$544 \$544 pfet_03v3 L=0.5U W=3U AS=1.95P AD=1.95P PS=7.3U
+ PD=7.3U
M$260 \$786 \$785 \$544 \$544 pfet_03v3 L=0.5U W=3U AS=1.95P AD=1.95P PS=7.3U
+ PD=7.3U
M$261 \$544 \$789 \$1 \$544 pfet_03v3 L=0.5U W=3U AS=1.95P AD=1.95P PS=7.3U
+ PD=7.3U
M$262 \$1217 \$739 \$787 \$544 pfet_03v3 L=0.5U W=6U AS=2.73P AD=2.73P
+ PS=10.82U PD=10.82U
M$264 \$1217 \$737 \$544 \$544 pfet_03v3 L=0.5U W=6U AS=2.73P AD=2.73P
+ PS=10.82U PD=10.82U
M$266 \$544 \$1088 \$788 \$544 pfet_03v3 L=0.5U W=3U AS=1.95P AD=1.95P PS=7.3U
+ PD=7.3U
M$267 \$544 \$741 \$1088 \$544 pfet_03v3 L=0.5U W=3U AS=1.95P AD=1.95P PS=7.3U
+ PD=7.3U
M$268 \$1088 \$1089 \$544 \$544 pfet_03v3 L=0.5U W=3U AS=1.95P AD=1.95P PS=7.3U
+ PD=7.3U
M$269 \$1218 \$1064 \$1089 \$544 pfet_03v3 L=0.5U W=6U AS=2.73P AD=2.73P
+ PS=10.82U PD=10.82U
M$271 \$1218 \$1090 \$544 \$544 pfet_03v3 L=0.5U W=6U AS=2.73P AD=2.73P
+ PS=10.82U PD=10.82U
M$273 \$544 \$684 \$1090 \$544 pfet_03v3 L=0.5U W=3U AS=1.95P AD=1.95P PS=7.3U
+ PD=7.3U
M$274 \$1090 \$683 \$544 \$544 pfet_03v3 L=0.5U W=3U AS=1.95P AD=1.95P PS=7.3U
+ PD=7.3U
M$275 \$544 \$682 \$1064 \$544 pfet_03v3 L=0.5U W=3U AS=1.95P AD=1.95P PS=7.3U
+ PD=7.3U
M$276 \$1064 \$681 \$544 \$544 pfet_03v3 L=0.5U W=3U AS=1.95P AD=1.95P PS=7.3U
+ PD=7.3U
M$277 \$1092 \$1091 \$544 \$544 pfet_03v3 L=0.5U W=3U AS=1.95P AD=1.95P PS=7.3U
+ PD=7.3U
M$278 \$1219 \$1092 \$544 \$544 pfet_03v3 L=0.5U W=6U AS=2.73P AD=2.73P
+ PS=10.82U PD=10.82U
M$280 \$1220 \$1091 \$544 \$544 pfet_03v3 L=0.5U W=6U AS=2.73P AD=2.73P
+ PS=10.82U PD=10.82U
M$282 \$1220 \$1094 \$1067 \$544 pfet_03v3 L=0.5U W=6U AS=2.73P AD=2.73P
+ PS=10.82U PD=10.82U
M$284 \$1219 \$1095 \$1067 \$544 pfet_03v3 L=0.5U W=6U AS=2.73P AD=2.73P
+ PS=10.82U PD=10.82U
M$286 \$544 \$1094 \$1095 \$544 pfet_03v3 L=0.5U W=3U AS=1.95P AD=1.95P PS=7.3U
+ PD=7.3U
M$287 \$1097 \$1096 \$544 \$544 pfet_03v3 L=0.5U W=3U AS=1.95P AD=1.95P PS=7.3U
+ PD=7.3U
M$288 \$1221 \$1097 \$544 \$544 pfet_03v3 L=0.5U W=6U AS=2.73P AD=2.73P
+ PS=10.82U PD=10.82U
M$290 \$1222 \$1096 \$544 \$544 pfet_03v3 L=0.5U W=6U AS=2.73P AD=2.73P
+ PS=10.82U PD=10.82U
M$292 \$1222 \$1099 \$1069 \$544 pfet_03v3 L=0.5U W=6U AS=2.73P AD=2.73P
+ PS=10.82U PD=10.82U
M$294 \$1221 \$1100 \$1069 \$544 pfet_03v3 L=0.5U W=6U AS=2.73P AD=2.73P
+ PS=10.82U PD=10.82U
M$296 \$544 \$1099 \$1100 \$544 pfet_03v3 L=0.5U W=3U AS=1.95P AD=1.95P PS=7.3U
+ PD=7.3U
M$297 \$1102 \$1101 \$544 \$544 pfet_03v3 L=0.5U W=3U AS=1.95P AD=1.95P PS=7.3U
+ PD=7.3U
M$298 \$1223 \$1102 \$544 \$544 pfet_03v3 L=0.5U W=6U AS=2.73P AD=2.73P
+ PS=10.82U PD=10.82U
M$300 \$1224 \$1101 \$544 \$544 pfet_03v3 L=0.5U W=6U AS=2.73P AD=2.73P
+ PS=10.82U PD=10.82U
M$302 \$1224 \$1104 \$1071 \$544 pfet_03v3 L=0.5U W=6U AS=2.73P AD=2.73P
+ PS=10.82U PD=10.82U
M$304 \$1223 \$1105 \$1071 \$544 pfet_03v3 L=0.5U W=6U AS=2.73P AD=2.73P
+ PS=10.82U PD=10.82U
M$306 \$544 \$1104 \$1105 \$544 pfet_03v3 L=0.5U W=3U AS=1.95P AD=1.95P PS=7.3U
+ PD=7.3U
M$307 \$1107 \$1106 \$544 \$544 pfet_03v3 L=0.5U W=3U AS=1.95P AD=1.95P PS=7.3U
+ PD=7.3U
M$308 \$1225 \$1107 \$544 \$544 pfet_03v3 L=0.5U W=6U AS=2.73P AD=2.73P
+ PS=10.82U PD=10.82U
M$310 \$1226 \$1106 \$544 \$544 pfet_03v3 L=0.5U W=6U AS=2.73P AD=2.73P
+ PS=10.82U PD=10.82U
M$312 \$1226 \$1109 \$1073 \$544 pfet_03v3 L=0.5U W=6U AS=2.73P AD=2.73P
+ PS=10.82U PD=10.82U
M$314 \$1225 \$1110 \$1073 \$544 pfet_03v3 L=0.5U W=6U AS=2.73P AD=2.73P
+ PS=10.82U PD=10.82U
M$316 \$544 \$1109 \$1110 \$544 pfet_03v3 L=0.5U W=3U AS=1.95P AD=1.95P PS=7.3U
+ PD=7.3U
M$317 \$1112 \$1111 \$544 \$544 pfet_03v3 L=0.5U W=3U AS=1.95P AD=1.95P PS=7.3U
+ PD=7.3U
M$318 \$1227 \$1112 \$544 \$544 pfet_03v3 L=0.5U W=6U AS=2.73P AD=2.73P
+ PS=10.82U PD=10.82U
M$320 \$1228 \$1111 \$544 \$544 pfet_03v3 L=0.5U W=6U AS=2.73P AD=2.73P
+ PS=10.82U PD=10.82U
M$322 \$1228 \$1114 \$1075 \$544 pfet_03v3 L=0.5U W=6U AS=2.73P AD=2.73P
+ PS=10.82U PD=10.82U
M$324 \$1227 \$1115 \$1075 \$544 pfet_03v3 L=0.5U W=6U AS=2.73P AD=2.73P
+ PS=10.82U PD=10.82U
M$326 \$544 \$1114 \$1115 \$544 pfet_03v3 L=0.5U W=3U AS=1.95P AD=1.95P PS=7.3U
+ PD=7.3U
M$327 \$1117 \$1116 \$544 \$544 pfet_03v3 L=0.5U W=3U AS=1.95P AD=1.95P PS=7.3U
+ PD=7.3U
M$328 \$1229 \$1117 \$544 \$544 pfet_03v3 L=0.5U W=6U AS=2.73P AD=2.73P
+ PS=10.82U PD=10.82U
M$330 \$1230 \$1116 \$544 \$544 pfet_03v3 L=0.5U W=6U AS=2.73P AD=2.73P
+ PS=10.82U PD=10.82U
M$332 \$1230 \$1119 \$1077 \$544 pfet_03v3 L=0.5U W=6U AS=2.73P AD=2.73P
+ PS=10.82U PD=10.82U
M$334 \$1229 \$1120 \$1077 \$544 pfet_03v3 L=0.5U W=6U AS=2.73P AD=2.73P
+ PS=10.82U PD=10.82U
M$336 \$544 \$1119 \$1120 \$544 pfet_03v3 L=0.5U W=3U AS=1.95P AD=1.95P PS=7.3U
+ PD=7.3U
M$337 \$1122 \$1121 \$544 \$544 pfet_03v3 L=0.5U W=3U AS=1.95P AD=1.95P PS=7.3U
+ PD=7.3U
M$338 \$1231 \$1122 \$544 \$544 pfet_03v3 L=0.5U W=6U AS=2.73P AD=2.73P
+ PS=10.82U PD=10.82U
M$340 \$1232 \$1121 \$544 \$544 pfet_03v3 L=0.5U W=6U AS=2.73P AD=2.73P
+ PS=10.82U PD=10.82U
M$342 \$1232 \$1124 \$1079 \$544 pfet_03v3 L=0.5U W=6U AS=2.73P AD=2.73P
+ PS=10.82U PD=10.82U
M$344 \$1231 \$1125 \$1079 \$544 pfet_03v3 L=0.5U W=6U AS=2.73P AD=2.73P
+ PS=10.82U PD=10.82U
M$346 \$544 \$1124 \$1125 \$544 pfet_03v3 L=0.5U W=3U AS=1.95P AD=1.95P PS=7.3U
+ PD=7.3U
M$347 \$1127 \$1126 \$544 \$544 pfet_03v3 L=0.5U W=3U AS=1.95P AD=1.95P PS=7.3U
+ PD=7.3U
M$348 \$1233 \$1127 \$544 \$544 pfet_03v3 L=0.5U W=6U AS=2.73P AD=2.73P
+ PS=10.82U PD=10.82U
M$350 \$1234 \$1126 \$544 \$544 pfet_03v3 L=0.5U W=6U AS=2.73P AD=2.73P
+ PS=10.82U PD=10.82U
M$352 \$1234 \$1129 \$1081 \$544 pfet_03v3 L=0.5U W=6U AS=2.73P AD=2.73P
+ PS=10.82U PD=10.82U
M$354 \$1233 \$1130 \$1081 \$544 pfet_03v3 L=0.5U W=6U AS=2.73P AD=2.73P
+ PS=10.82U PD=10.82U
M$356 \$544 \$1129 \$1130 \$544 pfet_03v3 L=0.5U W=3U AS=1.95P AD=1.95P PS=7.3U
+ PD=7.3U
M$357 \$1132 \$1131 \$544 \$544 pfet_03v3 L=0.5U W=3U AS=1.95P AD=1.95P PS=7.3U
+ PD=7.3U
M$358 \$1235 \$1132 \$544 \$544 pfet_03v3 L=0.5U W=6U AS=2.73P AD=2.73P
+ PS=10.82U PD=10.82U
M$360 \$1236 \$1131 \$544 \$544 pfet_03v3 L=0.5U W=6U AS=2.73P AD=2.73P
+ PS=10.82U PD=10.82U
M$362 \$1236 \$1134 \$1083 \$544 pfet_03v3 L=0.5U W=6U AS=2.73P AD=2.73P
+ PS=10.82U PD=10.82U
M$364 \$1235 \$1135 \$1083 \$544 pfet_03v3 L=0.5U W=6U AS=2.73P AD=2.73P
+ PS=10.82U PD=10.82U
M$366 \$544 \$1134 \$1135 \$544 pfet_03v3 L=0.5U W=3U AS=1.95P AD=1.95P PS=7.3U
+ PD=7.3U
M$367 \$544 \$1073 \$1136 \$544 pfet_03v3 L=0.5U W=3U AS=1.95P AD=1.95P PS=7.3U
+ PD=7.3U
M$368 \$1136 \$1071 \$544 \$544 pfet_03v3 L=0.5U W=3U AS=1.95P AD=1.95P PS=7.3U
+ PD=7.3U
M$369 \$544 \$1069 \$1137 \$544 pfet_03v3 L=0.5U W=3U AS=1.95P AD=1.95P PS=7.3U
+ PD=7.3U
M$370 \$1137 \$1067 \$544 \$544 pfet_03v3 L=0.5U W=3U AS=1.95P AD=1.95P PS=7.3U
+ PD=7.3U
M$371 \$1237 \$1137 \$544 \$544 pfet_03v3 L=0.5U W=6U AS=2.73P AD=2.73P
+ PS=10.82U PD=10.82U
M$373 \$1237 \$1136 \$865 \$544 pfet_03v3 L=0.5U W=6U AS=2.73P AD=2.73P
+ PS=10.82U PD=10.82U
M$375 \$544 \$1083 \$1138 \$544 pfet_03v3 L=0.5U W=3U AS=1.95P AD=1.95P PS=7.3U
+ PD=7.3U
M$376 \$1138 \$786 \$544 \$544 pfet_03v3 L=0.5U W=3U AS=1.95P AD=1.95P PS=7.3U
+ PD=7.3U
M$377 fout \$1138 \$544 \$544 pfet_03v3 L=0.5U W=3U AS=1.95P AD=1.95P PS=7.3U
+ PD=7.3U
M$378 \$1238 fout \$789 \$544 pfet_03v3 L=0.5U W=6U AS=2.73P AD=2.73P PS=10.82U
+ PD=10.82U
M$380 \$1238 define \$544 \$544 pfet_03v3 L=0.5U W=6U AS=2.73P AD=2.73P
+ PS=10.82U PD=10.82U
M$382 \$1624 \$1442 \$544 \$544 pfet_03v3 L=0.5U W=3U AS=1.95P AD=1.95P PS=7.3U
+ PD=7.3U
M$383 \$1442 fin \$544 \$544 pfet_03v3 L=0.5U W=3U AS=1.95P AD=1.95P PS=7.3U
+ PD=7.3U
M$384 \$1904 \$471 \$544 \$544 pfet_03v3 L=0.5U W=3U AS=1.95P AD=1.95P PS=7.3U
+ PD=7.3U
M$385 \$1444 \$1442 \$1443 \$544 pfet_03v3 L=0.5U W=3U AS=1.95P AD=1.95P
+ PS=7.3U PD=7.3U
M$386 \$1443 \$1624 \$1904 \$544 pfet_03v3 L=0.5U W=3U AS=1.95P AD=1.95P
+ PS=7.3U PD=7.3U
M$387 \$544 \$1509 \$1444 \$544 pfet_03v3 L=0.5U W=3U AS=1.95P AD=1.95P PS=7.3U
+ PD=7.3U
M$388 \$1509 \$1443 \$544 \$544 pfet_03v3 L=0.5U W=3U AS=1.95P AD=1.95P PS=7.3U
+ PD=7.3U
M$389 \$1444 \$1445 \$544 \$544 pfet_03v3 L=0.5U W=3U AS=1.95P AD=1.95P PS=7.3U
+ PD=7.3U
M$390 \$1446 \$1442 \$1509 \$544 pfet_03v3 L=0.5U W=3U AS=1.95P AD=1.95P
+ PS=7.3U PD=7.3U
M$391 \$544 vss \$1445 \$544 pfet_03v3 L=0.5U W=3U AS=1.95P AD=1.95P PS=7.3U
+ PD=7.3U
M$392 \$544 \$1446 \$1510 \$544 pfet_03v3 L=0.5U W=3U AS=1.95P AD=1.95P PS=7.3U
+ PD=7.3U
M$393 \$1447 \$1624 \$1446 \$544 pfet_03v3 L=0.5U W=3U AS=1.95P AD=1.95P
+ PS=7.3U PD=7.3U
M$394 \$544 \$1510 \$1447 \$544 pfet_03v3 L=0.5U W=3U AS=1.95P AD=1.95P PS=7.3U
+ PD=7.3U
M$395 \$1510 \$1445 \$544 \$544 pfet_03v3 L=0.5U W=3U AS=1.95P AD=1.95P PS=7.3U
+ PD=7.3U
M$396 \$1448 \$1510 \$544 \$544 pfet_03v3 L=0.5U W=3U AS=1.95P AD=1.95P PS=7.3U
+ PD=7.3U
M$397 \$544 \$1905 \$1514 \$544 pfet_03v3 L=0.5U W=3U AS=1.95P AD=1.95P PS=7.3U
+ PD=7.3U
M$398 \$544 \$471 \$1905 \$544 pfet_03v3 L=0.5U W=3U AS=1.95P AD=1.95P PS=7.3U
+ PD=7.3U
M$399 \$1449 \$1448 \$544 \$544 pfet_03v3 L=0.5U W=6U AS=2.73P AD=2.73P
+ PS=10.82U PD=10.82U
M$401 \$1449 \$737 \$1450 \$544 pfet_03v3 L=0.5U W=6U AS=2.73P AD=2.73P
+ PS=10.82U PD=10.82U
M$403 \$1905 \$1451 \$544 \$544 pfet_03v3 L=0.5U W=3U AS=1.95P AD=1.95P PS=7.3U
+ PD=7.3U
M$404 \$1451 \$1450 \$544 \$544 pfet_03v3 L=0.5U W=3U AS=1.95P AD=1.95P PS=7.3U
+ PD=7.3U
M$405 \$544 \$471 \$1906 \$544 pfet_03v3 L=0.5U W=3U AS=1.95P AD=1.95P PS=7.3U
+ PD=7.3U
M$406 \$544 \$1511 \$471 \$544 pfet_03v3 L=0.5U W=3U AS=1.95P AD=1.95P PS=7.3U
+ PD=7.3U
M$407 \$1907 \$471 \$544 \$544 pfet_03v3 L=0.5U W=3U AS=1.95P AD=1.95P PS=7.3U
+ PD=7.3U
M$408 \$1512 \$1636 \$1907 \$544 pfet_03v3 L=0.5U W=3U AS=1.95P AD=1.95P
+ PS=7.3U PD=7.3U
M$409 \$471 \$1512 \$544 \$544 pfet_03v3 L=0.5U W=3U AS=1.95P AD=1.95P PS=7.3U
+ PD=7.3U
M$410 \$1511 vss \$544 \$544 pfet_03v3 L=0.5U W=3U AS=1.95P AD=1.95P PS=7.3U
+ PD=7.3U
M$411 \$1452 \$1363 \$1512 \$544 pfet_03v3 L=0.5U W=3U AS=1.95P AD=1.95P
+ PS=7.3U PD=7.3U
M$412 \$544 \$1511 \$1908 \$544 pfet_03v3 L=0.5U W=3U AS=1.95P AD=1.95P PS=7.3U
+ PD=7.3U
M$413 \$544 \$1513 \$1452 \$544 pfet_03v3 L=0.5U W=3U AS=1.95P AD=1.95P PS=7.3U
+ PD=7.3U
M$414 \$1453 \$1636 \$1513 \$544 pfet_03v3 L=0.5U W=3U AS=1.95P AD=1.95P
+ PS=7.3U PD=7.3U
M$415 \$1908 \$1452 \$544 \$544 pfet_03v3 L=0.5U W=3U AS=1.95P AD=1.95P PS=7.3U
+ PD=7.3U
M$416 \$1513 \$1363 \$1908 \$544 pfet_03v3 L=0.5U W=3U AS=1.95P AD=1.95P
+ PS=7.3U PD=7.3U
M$417 \$544 \$1514 \$1453 \$544 pfet_03v3 L=0.5U W=3U AS=1.95P AD=1.95P PS=7.3U
+ PD=7.3U
M$418 \$544 fin \$1363 \$544 pfet_03v3 L=0.5U W=3U AS=1.95P AD=1.95P PS=7.3U
+ PD=7.3U
M$419 \$544 \$1363 \$1636 \$544 pfet_03v3 L=0.5U W=3U AS=1.95P AD=1.95P PS=7.3U
+ PD=7.3U
M$420 \$1625 \$1454 \$544 \$544 pfet_03v3 L=0.5U W=3U AS=1.95P AD=1.95P PS=7.3U
+ PD=7.3U
M$421 \$1454 \$471 \$544 \$544 pfet_03v3 L=0.5U W=3U AS=1.95P AD=1.95P PS=7.3U
+ PD=7.3U
M$422 \$1909 \$1516 \$544 \$544 pfet_03v3 L=0.5U W=3U AS=1.95P AD=1.95P PS=7.3U
+ PD=7.3U
M$423 \$1456 \$1454 \$1455 \$544 pfet_03v3 L=0.5U W=3U AS=1.95P AD=1.95P
+ PS=7.3U PD=7.3U