* Extracted by KLayout with GF180MCU LVS runset on : 14/08/2025 04:38

.SUBCKT asc_dual_psd_def_20250809 vdd sd9 sd8 sd7 sd6 sd5 sd4 sd3 sd2 sd1 vss
+ fout define fin pd1 pd2 pd3 pd4 pd5 pd6 pd7 pd8 pd9
M$1 vdd sd9 \$77 vdd pfet_03v3 L=0.5U W=3U AS=1.95P AD=1.95P PS=7.3U PD=7.3U
M$2 vdd \$119 \$78 vdd pfet_03v3 L=0.5U W=3U AS=1.95P AD=1.95P PS=7.3U PD=7.3U
M$3 \$78 \$120 vdd vdd pfet_03v3 L=0.5U W=3U AS=1.95P AD=1.95P PS=7.3U PD=7.3U
M$4 \$79 \$3 \$120 vdd pfet_03v3 L=0.5U W=3U AS=1.95P AD=1.95P PS=7.3U PD=7.3U
M$5 vdd \$121 \$79 vdd pfet_03v3 L=0.5U W=3U AS=1.95P AD=1.95P PS=7.3U PD=7.3U
M$6 \$81 \$80 \$121 vdd pfet_03v3 L=0.5U W=3U AS=1.95P AD=1.95P PS=7.3U PD=7.3U
M$7 vdd \$78 \$81 vdd pfet_03v3 L=0.5U W=3U AS=1.95P AD=1.95P PS=7.3U PD=7.3U
M$8 vdd \$3 \$80 vdd pfet_03v3 L=0.5U W=3U AS=1.95P AD=1.95P PS=7.3U PD=7.3U
M$9 vdd sd8 \$4 vdd pfet_03v3 L=0.5U W=3U AS=1.95P AD=1.95P PS=7.3U PD=7.3U
M$10 vdd \$123 \$82 vdd pfet_03v3 L=0.5U W=3U AS=1.95P AD=1.95P PS=7.3U PD=7.3U
M$11 \$82 \$124 vdd vdd pfet_03v3 L=0.5U W=3U AS=1.95P AD=1.95P PS=7.3U PD=7.3U
M$12 \$83 \$5 \$124 vdd pfet_03v3 L=0.5U W=3U AS=1.95P AD=1.95P PS=7.3U PD=7.3U
M$13 vdd \$125 \$83 vdd pfet_03v3 L=0.5U W=3U AS=1.95P AD=1.95P PS=7.3U PD=7.3U
M$14 \$85 \$84 \$125 vdd pfet_03v3 L=0.5U W=3U AS=1.95P AD=1.95P PS=7.3U PD=7.3U
M$15 vdd \$82 \$85 vdd pfet_03v3 L=0.5U W=3U AS=1.95P AD=1.95P PS=7.3U PD=7.3U
M$16 vdd \$5 \$84 vdd pfet_03v3 L=0.5U W=3U AS=1.95P AD=1.95P PS=7.3U PD=7.3U
M$17 vdd sd7 \$86 vdd pfet_03v3 L=0.5U W=3U AS=1.95P AD=1.95P PS=7.3U PD=7.3U
M$18 vdd \$127 \$87 vdd pfet_03v3 L=0.5U W=3U AS=1.95P AD=1.95P PS=7.3U PD=7.3U
M$19 \$87 \$128 vdd vdd pfet_03v3 L=0.5U W=3U AS=1.95P AD=1.95P PS=7.3U PD=7.3U
M$20 \$88 \$6 \$128 vdd pfet_03v3 L=0.5U W=3U AS=1.95P AD=1.95P PS=7.3U PD=7.3U
M$21 vdd \$129 \$88 vdd pfet_03v3 L=0.5U W=3U AS=1.95P AD=1.95P PS=7.3U PD=7.3U
M$22 \$90 \$89 \$129 vdd pfet_03v3 L=0.5U W=3U AS=1.95P AD=1.95P PS=7.3U PD=7.3U
M$23 vdd \$87 \$90 vdd pfet_03v3 L=0.5U W=3U AS=1.95P AD=1.95P PS=7.3U PD=7.3U
M$24 vdd \$6 \$89 vdd pfet_03v3 L=0.5U W=3U AS=1.95P AD=1.95P PS=7.3U PD=7.3U
M$25 vdd sd6 \$91 vdd pfet_03v3 L=0.5U W=3U AS=1.95P AD=1.95P PS=7.3U PD=7.3U
M$26 vdd \$131 \$92 vdd pfet_03v3 L=0.5U W=3U AS=1.95P AD=1.95P PS=7.3U PD=7.3U
M$27 \$92 \$132 vdd vdd pfet_03v3 L=0.5U W=3U AS=1.95P AD=1.95P PS=7.3U PD=7.3U
M$28 \$93 \$7 \$132 vdd pfet_03v3 L=0.5U W=3U AS=1.95P AD=1.95P PS=7.3U PD=7.3U
M$29 vdd \$133 \$93 vdd pfet_03v3 L=0.5U W=3U AS=1.95P AD=1.95P PS=7.3U PD=7.3U
M$30 \$95 \$94 \$133 vdd pfet_03v3 L=0.5U W=3U AS=1.95P AD=1.95P PS=7.3U PD=7.3U
M$31 vdd \$92 \$95 vdd pfet_03v3 L=0.5U W=3U AS=1.95P AD=1.95P PS=7.3U PD=7.3U
M$32 vdd \$7 \$94 vdd pfet_03v3 L=0.5U W=3U AS=1.95P AD=1.95P PS=7.3U PD=7.3U
M$33 vdd sd5 \$8 vdd pfet_03v3 L=0.5U W=3U AS=1.95P AD=1.95P PS=7.3U PD=7.3U
M$34 vdd \$135 \$96 vdd pfet_03v3 L=0.5U W=3U AS=1.95P AD=1.95P PS=7.3U PD=7.3U
M$35 \$96 \$136 vdd vdd pfet_03v3 L=0.5U W=3U AS=1.95P AD=1.95P PS=7.3U PD=7.3U
M$36 \$97 \$9 \$136 vdd pfet_03v3 L=0.5U W=3U AS=1.95P AD=1.95P PS=7.3U PD=7.3U
M$37 vdd \$137 \$97 vdd pfet_03v3 L=0.5U W=3U AS=1.95P AD=1.95P PS=7.3U PD=7.3U
M$38 \$99 \$98 \$137 vdd pfet_03v3 L=0.5U W=3U AS=1.95P AD=1.95P PS=7.3U PD=7.3U
M$39 vdd \$96 \$99 vdd pfet_03v3 L=0.5U W=3U AS=1.95P AD=1.95P PS=7.3U PD=7.3U
M$40 vdd \$9 \$98 vdd pfet_03v3 L=0.5U W=3U AS=1.95P AD=1.95P PS=7.3U PD=7.3U
M$41 vdd sd4 \$100 vdd pfet_03v3 L=0.5U W=3U AS=1.95P AD=1.95P PS=7.3U PD=7.3U
M$42 vdd \$140 \$139 vdd pfet_03v3 L=0.5U W=3U AS=1.95P AD=1.95P PS=7.3U PD=7.3U
M$43 \$139 \$141 vdd vdd pfet_03v3 L=0.5U W=3U AS=1.95P AD=1.95P PS=7.3U PD=7.3U
M$44 \$101 \$10 \$141 vdd pfet_03v3 L=0.5U W=3U AS=1.95P AD=1.95P PS=7.3U
+ PD=7.3U
M$45 vdd \$142 \$101 vdd pfet_03v3 L=0.5U W=3U AS=1.95P AD=1.95P PS=7.3U PD=7.3U
M$46 \$103 \$102 \$142 vdd pfet_03v3 L=0.5U W=3U AS=1.95P AD=1.95P PS=7.3U
+ PD=7.3U
M$47 vdd \$139 \$103 vdd pfet_03v3 L=0.5U W=3U AS=1.95P AD=1.95P PS=7.3U PD=7.3U
M$48 vdd \$10 \$102 vdd pfet_03v3 L=0.5U W=3U AS=1.95P AD=1.95P PS=7.3U PD=7.3U
M$49 vdd sd3 \$104 vdd pfet_03v3 L=0.5U W=3U AS=1.95P AD=1.95P PS=7.3U PD=7.3U
M$50 vdd \$144 \$105 vdd pfet_03v3 L=0.5U W=3U AS=1.95P AD=1.95P PS=7.3U PD=7.3U
M$51 \$105 \$145 vdd vdd pfet_03v3 L=0.5U W=3U AS=1.95P AD=1.95P PS=7.3U PD=7.3U
M$52 \$106 \$11 \$145 vdd pfet_03v3 L=0.5U W=3U AS=1.95P AD=1.95P PS=7.3U
+ PD=7.3U
M$53 vdd \$146 \$106 vdd pfet_03v3 L=0.5U W=3U AS=1.95P AD=1.95P PS=7.3U PD=7.3U
M$54 \$108 \$107 \$146 vdd pfet_03v3 L=0.5U W=3U AS=1.95P AD=1.95P PS=7.3U
+ PD=7.3U
M$55 vdd \$105 \$108 vdd pfet_03v3 L=0.5U W=3U AS=1.95P AD=1.95P PS=7.3U PD=7.3U
M$56 vdd \$11 \$107 vdd pfet_03v3 L=0.5U W=3U AS=1.95P AD=1.95P PS=7.3U PD=7.3U
M$57 vdd sd2 \$109 vdd pfet_03v3 L=0.5U W=3U AS=1.95P AD=1.95P PS=7.3U PD=7.3U
M$58 vdd \$149 \$148 vdd pfet_03v3 L=0.5U W=3U AS=1.95P AD=1.95P PS=7.3U PD=7.3U
M$59 \$148 \$150 vdd vdd pfet_03v3 L=0.5U W=3U AS=1.95P AD=1.95P PS=7.3U PD=7.3U
M$60 \$110 \$12 \$150 vdd pfet_03v3 L=0.5U W=3U AS=1.95P AD=1.95P PS=7.3U
+ PD=7.3U
M$61 vdd \$151 \$110 vdd pfet_03v3 L=0.5U W=3U AS=1.95P AD=1.95P PS=7.3U PD=7.3U
M$62 \$112 \$111 \$151 vdd pfet_03v3 L=0.5U W=3U AS=1.95P AD=1.95P PS=7.3U
+ PD=7.3U
M$63 vdd \$148 \$112 vdd pfet_03v3 L=0.5U W=3U AS=1.95P AD=1.95P PS=7.3U PD=7.3U
M$64 vdd \$12 \$111 vdd pfet_03v3 L=0.5U W=3U AS=1.95P AD=1.95P PS=7.3U PD=7.3U
M$65 vdd sd1 \$113 vdd pfet_03v3 L=0.5U W=3U AS=1.95P AD=1.95P PS=7.3U PD=7.3U
M$66 vdd \$470 \$114 vdd pfet_03v3 L=0.5U W=3U AS=1.95P AD=1.95P PS=7.3U PD=7.3U
M$67 \$114 \$153 vdd vdd pfet_03v3 L=0.5U W=3U AS=1.95P AD=1.95P PS=7.3U PD=7.3U
M$68 \$115 \$13 \$153 vdd pfet_03v3 L=0.5U W=3U AS=1.95P AD=1.95P PS=7.3U
+ PD=7.3U
M$69 vdd \$154 \$115 vdd pfet_03v3 L=0.5U W=3U AS=1.95P AD=1.95P PS=7.3U PD=7.3U
M$70 \$117 \$116 \$154 vdd pfet_03v3 L=0.5U W=3U AS=1.95P AD=1.95P PS=7.3U
+ PD=7.3U
M$71 vdd \$114 \$117 vdd pfet_03v3 L=0.5U W=3U AS=1.95P AD=1.95P PS=7.3U PD=7.3U
M$72 vdd \$13 \$116 vdd pfet_03v3 L=0.5U W=3U AS=1.95P AD=1.95P PS=7.3U PD=7.3U
M$73 vdd \$78 \$444 vdd pfet_03v3 L=0.5U W=3U AS=1.95P AD=1.95P PS=7.3U PD=7.3U
M$74 \$445 \$78 vdd vdd pfet_03v3 L=0.5U W=3U AS=1.95P AD=1.95P PS=7.3U PD=7.3U
M$75 \$120 \$80 \$445 vdd pfet_03v3 L=0.5U W=3U AS=1.95P AD=1.95P PS=7.3U
+ PD=7.3U
M$76 \$119 \$1 vdd vdd pfet_03v3 L=0.5U W=3U AS=1.95P AD=1.95P PS=7.3U PD=7.3U
M$77 vdd \$119 \$446 vdd pfet_03v3 L=0.5U W=3U AS=1.95P AD=1.95P PS=7.3U PD=7.3U
M$78 \$446 \$79 vdd vdd pfet_03v3 L=0.5U W=3U AS=1.95P AD=1.95P PS=7.3U PD=7.3U
M$79 \$121 \$3 \$446 vdd pfet_03v3 L=0.5U W=3U AS=1.95P AD=1.95P PS=7.3U PD=7.3U
M$80 vdd \$447 \$3 vdd pfet_03v3 L=0.5U W=3U AS=1.95P AD=1.95P PS=7.3U PD=7.3U
M$81 vdd \$82 \$447 vdd pfet_03v3 L=0.5U W=3U AS=1.95P AD=1.95P PS=7.3U PD=7.3U
M$82 \$448 \$82 vdd vdd pfet_03v3 L=0.5U W=3U AS=1.95P AD=1.95P PS=7.3U PD=7.3U
M$83 \$124 \$84 \$448 vdd pfet_03v3 L=0.5U W=3U AS=1.95P AD=1.95P PS=7.3U
+ PD=7.3U
M$84 \$123 \$1 vdd vdd pfet_03v3 L=0.5U W=3U AS=1.95P AD=1.95P PS=7.3U PD=7.3U
M$85 vdd \$123 \$449 vdd pfet_03v3 L=0.5U W=3U AS=1.95P AD=1.95P PS=7.3U PD=7.3U
M$86 \$449 \$83 vdd vdd pfet_03v3 L=0.5U W=3U AS=1.95P AD=1.95P PS=7.3U PD=7.3U
M$87 \$125 \$5 \$449 vdd pfet_03v3 L=0.5U W=3U AS=1.95P AD=1.95P PS=7.3U PD=7.3U
M$88 vdd \$450 \$5 vdd pfet_03v3 L=0.5U W=3U AS=1.95P AD=1.95P PS=7.3U PD=7.3U
M$89 vdd \$87 \$450 vdd pfet_03v3 L=0.5U W=3U AS=1.95P AD=1.95P PS=7.3U PD=7.3U
M$90 \$451 \$87 vdd vdd pfet_03v3 L=0.5U W=3U AS=1.95P AD=1.95P PS=7.3U PD=7.3U
M$91 \$128 \$89 \$451 vdd pfet_03v3 L=0.5U W=3U AS=1.95P AD=1.95P PS=7.3U
+ PD=7.3U
M$92 \$127 \$1 vdd vdd pfet_03v3 L=0.5U W=3U AS=1.95P AD=1.95P PS=7.3U PD=7.3U
M$93 vdd \$127 \$452 vdd pfet_03v3 L=0.5U W=3U AS=1.95P AD=1.95P PS=7.3U PD=7.3U
M$94 \$452 \$88 vdd vdd pfet_03v3 L=0.5U W=3U AS=1.95P AD=1.95P PS=7.3U PD=7.3U
M$95 \$129 \$6 \$452 vdd pfet_03v3 L=0.5U W=3U AS=1.95P AD=1.95P PS=7.3U PD=7.3U
M$96 vdd \$453 \$6 vdd pfet_03v3 L=0.5U W=3U AS=1.95P AD=1.95P PS=7.3U PD=7.3U
M$97 vdd \$92 \$453 vdd pfet_03v3 L=0.5U W=3U AS=1.95P AD=1.95P PS=7.3U PD=7.3U
M$98 \$454 \$92 vdd vdd pfet_03v3 L=0.5U W=3U AS=1.95P AD=1.95P PS=7.3U PD=7.3U
M$99 \$132 \$94 \$454 vdd pfet_03v3 L=0.5U W=3U AS=1.95P AD=1.95P PS=7.3U
+ PD=7.3U
M$100 \$131 \$1 vdd vdd pfet_03v3 L=0.5U W=3U AS=1.95P AD=1.95P PS=7.3U PD=7.3U
M$101 vdd \$131 \$455 vdd pfet_03v3 L=0.5U W=3U AS=1.95P AD=1.95P PS=7.3U
+ PD=7.3U
M$102 \$455 \$93 vdd vdd pfet_03v3 L=0.5U W=3U AS=1.95P AD=1.95P PS=7.3U PD=7.3U
M$103 \$133 \$7 \$455 vdd pfet_03v3 L=0.5U W=3U AS=1.95P AD=1.95P PS=7.3U
+ PD=7.3U
M$104 vdd \$456 \$7 vdd pfet_03v3 L=0.5U W=3U AS=1.95P AD=1.95P PS=7.3U PD=7.3U
M$105 vdd \$96 \$456 vdd pfet_03v3 L=0.5U W=3U AS=1.95P AD=1.95P PS=7.3U PD=7.3U
M$106 \$457 \$96 vdd vdd pfet_03v3 L=0.5U W=3U AS=1.95P AD=1.95P PS=7.3U PD=7.3U
M$107 \$136 \$98 \$457 vdd pfet_03v3 L=0.5U W=3U AS=1.95P AD=1.95P PS=7.3U
+ PD=7.3U
M$108 \$135 \$1 vdd vdd pfet_03v3 L=0.5U W=3U AS=1.95P AD=1.95P PS=7.3U PD=7.3U
M$109 vdd \$135 \$458 vdd pfet_03v3 L=0.5U W=3U AS=1.95P AD=1.95P PS=7.3U
+ PD=7.3U
M$110 \$458 \$97 vdd vdd pfet_03v3 L=0.5U W=3U AS=1.95P AD=1.95P PS=7.3U PD=7.3U
M$111 \$137 \$9 \$458 vdd pfet_03v3 L=0.5U W=3U AS=1.95P AD=1.95P PS=7.3U
+ PD=7.3U
M$112 vdd \$459 \$9 vdd pfet_03v3 L=0.5U W=3U AS=1.95P AD=1.95P PS=7.3U PD=7.3U
M$113 vdd \$139 \$459 vdd pfet_03v3 L=0.5U W=3U AS=1.95P AD=1.95P PS=7.3U
+ PD=7.3U
M$114 \$460 \$139 vdd vdd pfet_03v3 L=0.5U W=3U AS=1.95P AD=1.95P PS=7.3U
+ PD=7.3U
M$115 \$141 \$102 \$460 vdd pfet_03v3 L=0.5U W=3U AS=1.95P AD=1.95P PS=7.3U
+ PD=7.3U
M$116 \$140 \$1 vdd vdd pfet_03v3 L=0.5U W=3U AS=1.95P AD=1.95P PS=7.3U PD=7.3U
M$117 vdd \$140 \$461 vdd pfet_03v3 L=0.5U W=3U AS=1.95P AD=1.95P PS=7.3U
+ PD=7.3U
M$118 \$461 \$101 vdd vdd pfet_03v3 L=0.5U W=3U AS=1.95P AD=1.95P PS=7.3U
+ PD=7.3U
M$119 \$142 \$10 \$461 vdd pfet_03v3 L=0.5U W=3U AS=1.95P AD=1.95P PS=7.3U
+ PD=7.3U
M$120 vdd \$462 \$10 vdd pfet_03v3 L=0.5U W=3U AS=1.95P AD=1.95P PS=7.3U PD=7.3U
M$121 vdd \$105 \$462 vdd pfet_03v3 L=0.5U W=3U AS=1.95P AD=1.95P PS=7.3U
+ PD=7.3U
M$122 \$463 \$105 vdd vdd pfet_03v3 L=0.5U W=3U AS=1.95P AD=1.95P PS=7.3U
+ PD=7.3U
M$123 \$145 \$107 \$463 vdd pfet_03v3 L=0.5U W=3U AS=1.95P AD=1.95P PS=7.3U
+ PD=7.3U
M$124 \$144 \$1 vdd vdd pfet_03v3 L=0.5U W=3U AS=1.95P AD=1.95P PS=7.3U PD=7.3U
M$125 vdd \$144 \$464 vdd pfet_03v3 L=0.5U W=3U AS=1.95P AD=1.95P PS=7.3U
+ PD=7.3U
M$126 \$464 \$106 vdd vdd pfet_03v3 L=0.5U W=3U AS=1.95P AD=1.95P PS=7.3U
+ PD=7.3U
M$127 \$146 \$11 \$464 vdd pfet_03v3 L=0.5U W=3U AS=1.95P AD=1.95P PS=7.3U
+ PD=7.3U
M$128 vdd \$465 \$11 vdd pfet_03v3 L=0.5U W=3U AS=1.95P AD=1.95P PS=7.3U PD=7.3U
M$129 vdd \$148 \$465 vdd pfet_03v3 L=0.5U W=3U AS=1.95P AD=1.95P PS=7.3U
+ PD=7.3U
M$130 \$466 \$148 vdd vdd pfet_03v3 L=0.5U W=3U AS=1.95P AD=1.95P PS=7.3U
+ PD=7.3U
M$131 \$150 \$111 \$466 vdd pfet_03v3 L=0.5U W=3U AS=1.95P AD=1.95P PS=7.3U
+ PD=7.3U
M$132 \$149 \$1 vdd vdd pfet_03v3 L=0.5U W=3U AS=1.95P AD=1.95P PS=7.3U PD=7.3U
M$133 vdd \$149 \$467 vdd pfet_03v3 L=0.5U W=3U AS=1.95P AD=1.95P PS=7.3U
+ PD=7.3U
M$134 \$467 \$110 vdd vdd pfet_03v3 L=0.5U W=3U AS=1.95P AD=1.95P PS=7.3U
+ PD=7.3U
M$135 \$151 \$12 \$467 vdd pfet_03v3 L=0.5U W=3U AS=1.95P AD=1.95P PS=7.3U
+ PD=7.3U
M$136 vdd \$468 \$12 vdd pfet_03v3 L=0.5U W=3U AS=1.95P AD=1.95P PS=7.3U PD=7.3U
M$137 vdd \$114 \$468 vdd pfet_03v3 L=0.5U W=3U AS=1.95P AD=1.95P PS=7.3U
+ PD=7.3U
M$138 \$469 \$114 vdd vdd pfet_03v3 L=0.5U W=3U AS=1.95P AD=1.95P PS=7.3U
+ PD=7.3U
M$139 \$153 \$116 \$469 vdd pfet_03v3 L=0.5U W=3U AS=1.95P AD=1.95P PS=7.3U
+ PD=7.3U
M$140 \$470 \$1 vdd vdd pfet_03v3 L=0.5U W=3U AS=1.95P AD=1.95P PS=7.3U PD=7.3U
M$141 vdd \$470 \$471 vdd pfet_03v3 L=0.5U W=3U AS=1.95P AD=1.95P PS=7.3U
+ PD=7.3U
M$142 \$471 \$115 vdd vdd pfet_03v3 L=0.5U W=3U AS=1.95P AD=1.95P PS=7.3U
+ PD=7.3U
M$143 \$154 \$13 \$471 vdd pfet_03v3 L=0.5U W=3U AS=1.95P AD=1.95P PS=7.3U
+ PD=7.3U
M$144 vdd \$472 \$13 vdd pfet_03v3 L=0.5U W=3U AS=1.95P AD=1.95P PS=7.3U PD=7.3U
M$145 \$738 \$787 \$737 vdd pfet_03v3 L=0.5U W=6U AS=2.73P AD=2.73P PS=10.82U
+ PD=10.82U
M$147 \$738 \$1 vdd vdd pfet_03v3 L=0.5U W=6U AS=2.73P AD=2.73P PS=10.82U
+ PD=10.82U
M$149 vdd \$740 \$739 vdd pfet_03v3 L=0.5U W=3U AS=1.95P AD=1.95P PS=7.3U
+ PD=7.3U
M$150 vdd \$788 \$740 vdd pfet_03v3 L=0.5U W=3U AS=1.95P AD=1.95P PS=7.3U
+ PD=7.3U
M$151 \$740 \$680 vdd vdd pfet_03v3 L=0.5U W=3U AS=1.95P AD=1.95P PS=7.3U
+ PD=7.3U
M$152 \$742 \$744 \$741 vdd pfet_03v3 L=0.5U W=6U AS=2.73P AD=2.73P PS=10.82U
+ PD=10.82U
M$154 \$742 \$743 vdd vdd pfet_03v3 L=0.5U W=6U AS=2.73P AD=2.73P PS=10.82U
+ PD=10.82U
M$156 vdd \$688 \$743 vdd pfet_03v3 L=0.5U W=3U AS=1.95P AD=1.95P PS=7.3U
+ PD=7.3U
M$157 \$743 \$687 vdd vdd pfet_03v3 L=0.5U W=3U AS=1.95P AD=1.95P PS=7.3U
+ PD=7.3U
M$158 vdd \$686 \$744 vdd pfet_03v3 L=0.5U W=3U AS=1.95P AD=1.95P PS=7.3U
+ PD=7.3U
M$159 \$744 \$685 vdd vdd pfet_03v3 L=0.5U W=3U AS=1.95P AD=1.95P PS=7.3U
+ PD=7.3U
M$160 \$745 \$444 vdd vdd pfet_03v3 L=0.5U W=3U AS=1.95P AD=1.95P PS=7.3U
+ PD=7.3U
M$161 \$746 \$745 \$680 vdd pfet_03v3 L=0.5U W=6U AS=2.73P AD=2.73P PS=10.82U
+ PD=10.82U
M$163 \$747 \$444 \$680 vdd pfet_03v3 L=0.5U W=6U AS=2.73P AD=2.73P PS=10.82U
+ PD=10.82U
M$165 \$747 \$77 vdd vdd pfet_03v3 L=0.5U W=6U AS=2.73P AD=2.73P PS=10.82U
+ PD=10.82U
M$167 \$746 \$748 vdd vdd pfet_03v3 L=0.5U W=6U AS=2.73P AD=2.73P PS=10.82U
+ PD=10.82U
M$169 vdd \$77 \$748 vdd pfet_03v3 L=0.5U W=3U AS=1.95P AD=1.95P PS=7.3U PD=7.3U
M$170 \$749 \$447 vdd vdd pfet_03v3 L=0.5U W=3U AS=1.95P AD=1.95P PS=7.3U
+ PD=7.3U
M$171 \$750 \$749 \$681 vdd pfet_03v3 L=0.5U W=6U AS=2.73P AD=2.73P PS=10.82U
+ PD=10.82U
M$173 \$751 \$447 \$681 vdd pfet_03v3 L=0.5U W=6U AS=2.73P AD=2.73P PS=10.82U
+ PD=10.82U
M$175 \$751 \$4 vdd vdd pfet_03v3 L=0.5U W=6U AS=2.73P AD=2.73P PS=10.82U
+ PD=10.82U
M$177 \$750 \$752 vdd vdd pfet_03v3 L=0.5U W=6U AS=2.73P AD=2.73P PS=10.82U
+ PD=10.82U
M$179 vdd \$4 \$752 vdd pfet_03v3 L=0.5U W=3U AS=1.95P AD=1.95P PS=7.3U PD=7.3U
M$180 \$753 \$450 vdd vdd pfet_03v3 L=0.5U W=3U AS=1.95P AD=1.95P PS=7.3U
+ PD=7.3U
M$181 \$754 \$753 \$682 vdd pfet_03v3 L=0.5U W=6U AS=2.73P AD=2.73P PS=10.82U
+ PD=10.82U
M$183 \$755 \$450 \$682 vdd pfet_03v3 L=0.5U W=6U AS=2.73P AD=2.73P PS=10.82U
+ PD=10.82U
M$185 \$755 \$86 vdd vdd pfet_03v3 L=0.5U W=6U AS=2.73P AD=2.73P PS=10.82U
+ PD=10.82U
M$187 \$754 \$756 vdd vdd pfet_03v3 L=0.5U W=6U AS=2.73P AD=2.73P PS=10.82U
+ PD=10.82U
M$189 vdd \$86 \$756 vdd pfet_03v3 L=0.5U W=3U AS=1.95P AD=1.95P PS=7.3U PD=7.3U
M$190 \$757 \$453 vdd vdd pfet_03v3 L=0.5U W=3U AS=1.95P AD=1.95P PS=7.3U
+ PD=7.3U
M$191 \$758 \$757 \$683 vdd pfet_03v3 L=0.5U W=6U AS=2.73P AD=2.73P PS=10.82U
+ PD=10.82U
M$193 \$759 \$453 \$683 vdd pfet_03v3 L=0.5U W=6U AS=2.73P AD=2.73P PS=10.82U
+ PD=10.82U
M$195 \$759 \$91 vdd vdd pfet_03v3 L=0.5U W=6U AS=2.73P AD=2.73P PS=10.82U
+ PD=10.82U
M$197 \$758 \$760 vdd vdd pfet_03v3 L=0.5U W=6U AS=2.73P AD=2.73P PS=10.82U
+ PD=10.82U
M$199 vdd \$91 \$760 vdd pfet_03v3 L=0.5U W=3U AS=1.95P AD=1.95P PS=7.3U PD=7.3U
M$200 \$761 \$456 vdd vdd pfet_03v3 L=0.5U W=3U AS=1.95P AD=1.95P PS=7.3U
+ PD=7.3U
M$201 \$762 \$761 \$684 vdd pfet_03v3 L=0.5U W=6U AS=2.73P AD=2.73P PS=10.82U
+ PD=10.82U
M$203 \$763 \$456 \$684 vdd pfet_03v3 L=0.5U W=6U AS=2.73P AD=2.73P PS=10.82U
+ PD=10.82U
M$205 \$763 \$8 vdd vdd pfet_03v3 L=0.5U W=6U AS=2.73P AD=2.73P PS=10.82U
+ PD=10.82U
M$207 \$762 \$764 vdd vdd pfet_03v3 L=0.5U W=6U AS=2.73P AD=2.73P PS=10.82U
+ PD=10.82U
M$209 vdd \$8 \$764 vdd pfet_03v3 L=0.5U W=3U AS=1.95P AD=1.95P PS=7.3U PD=7.3U
M$210 \$765 \$459 vdd vdd pfet_03v3 L=0.5U W=3U AS=1.95P AD=1.95P PS=7.3U
+ PD=7.3U
M$211 \$766 \$765 \$685 vdd pfet_03v3 L=0.5U W=6U AS=2.73P AD=2.73P PS=10.82U
+ PD=10.82U
M$213 \$767 \$459 \$685 vdd pfet_03v3 L=0.5U W=6U AS=2.73P AD=2.73P PS=10.82U
+ PD=10.82U
M$215 \$767 \$100 vdd vdd pfet_03v3 L=0.5U W=6U AS=2.73P AD=2.73P PS=10.82U
+ PD=10.82U
M$217 \$766 \$768 vdd vdd pfet_03v3 L=0.5U W=6U AS=2.73P AD=2.73P PS=10.82U
+ PD=10.82U
M$219 vdd \$100 \$768 vdd pfet_03v3 L=0.5U W=3U AS=1.95P AD=1.95P PS=7.3U
+ PD=7.3U
M$220 \$769 \$462 vdd vdd pfet_03v3 L=0.5U W=3U AS=1.95P AD=1.95P PS=7.3U
+ PD=7.3U
M$221 \$770 \$769 \$686 vdd pfet_03v3 L=0.5U W=6U AS=2.73P AD=2.73P PS=10.82U
+ PD=10.82U
M$223 \$771 \$462 \$686 vdd pfet_03v3 L=0.5U W=6U AS=2.73P AD=2.73P PS=10.82U
+ PD=10.82U
M$225 \$771 \$104 vdd vdd pfet_03v3 L=0.5U W=6U AS=2.73P AD=2.73P PS=10.82U
+ PD=10.82U
M$227 \$770 \$772 vdd vdd pfet_03v3 L=0.5U W=6U AS=2.73P AD=2.73P PS=10.82U
+ PD=10.82U
M$229 vdd \$104 \$772 vdd pfet_03v3 L=0.5U W=3U AS=1.95P AD=1.95P PS=7.3U
+ PD=7.3U
M$230 \$773 \$465 vdd vdd pfet_03v3 L=0.5U W=3U AS=1.95P AD=1.95P PS=7.3U
+ PD=7.3U
M$231 \$774 \$773 \$687 vdd pfet_03v3 L=0.5U W=6U AS=2.73P AD=2.73P PS=10.82U
+ PD=10.82U
M$233 \$775 \$465 \$687 vdd pfet_03v3 L=0.5U W=6U AS=2.73P AD=2.73P PS=10.82U
+ PD=10.82U
M$235 \$775 \$109 vdd vdd pfet_03v3 L=0.5U W=6U AS=2.73P AD=2.73P PS=10.82U
+ PD=10.82U
M$237 \$774 \$776 vdd vdd pfet_03v3 L=0.5U W=6U AS=2.73P AD=2.73P PS=10.82U
+ PD=10.82U
M$239 vdd \$109 \$776 vdd pfet_03v3 L=0.5U W=3U AS=1.95P AD=1.95P PS=7.3U
+ PD=7.3U
M$240 \$777 \$468 vdd vdd pfet_03v3 L=0.5U W=3U AS=1.95P AD=1.95P PS=7.3U
+ PD=7.3U
M$241 \$778 \$777 \$688 vdd pfet_03v3 L=0.5U W=6U AS=2.73P AD=2.73P PS=10.82U
+ PD=10.82U
M$243 \$779 \$468 \$688 vdd pfet_03v3 L=0.5U W=6U AS=2.73P AD=2.73P PS=10.82U
+ PD=10.82U
M$245 \$779 \$113 vdd vdd pfet_03v3 L=0.5U W=6U AS=2.73P AD=2.73P PS=10.82U
+ PD=10.82U
M$247 \$778 \$780 vdd vdd pfet_03v3 L=0.5U W=6U AS=2.73P AD=2.73P PS=10.82U
+ PD=10.82U
M$249 vdd \$113 \$780 vdd pfet_03v3 L=0.5U W=3U AS=1.95P AD=1.95P PS=7.3U
+ PD=7.3U
M$250 vdd \$1081 \$781 vdd pfet_03v3 L=0.5U W=3U AS=1.95P AD=1.95P PS=7.3U
+ PD=7.3U
M$251 \$781 \$1079 vdd vdd pfet_03v3 L=0.5U W=3U AS=1.95P AD=1.95P PS=7.3U
+ PD=7.3U
M$252 vdd \$1077 \$782 vdd pfet_03v3 L=0.5U W=3U AS=1.95P AD=1.95P PS=7.3U
+ PD=7.3U
M$253 \$782 \$1075 vdd vdd pfet_03v3 L=0.5U W=3U AS=1.95P AD=1.95P PS=7.3U
+ PD=7.3U
M$254 \$783 \$782 vdd vdd pfet_03v3 L=0.5U W=6U AS=2.73P AD=2.73P PS=10.82U
+ PD=10.82U
M$256 \$783 \$781 \$784 vdd pfet_03v3 L=0.5U W=6U AS=2.73P AD=2.73P PS=10.82U
+ PD=10.82U
M$258 vdd \$784 \$785 vdd pfet_03v3 L=0.5U W=3U AS=1.95P AD=1.95P PS=7.3U
+ PD=7.3U
M$259 \$785 \$865 vdd vdd pfet_03v3 L=0.5U W=3U AS=1.95P AD=1.95P PS=7.3U
+ PD=7.3U
M$260 \$786 \$785 vdd vdd pfet_03v3 L=0.5U W=3U AS=1.95P AD=1.95P PS=7.3U
+ PD=7.3U
M$261 vdd \$789 \$1 vdd pfet_03v3 L=0.5U W=3U AS=1.95P AD=1.95P PS=7.3U PD=7.3U
M$262 \$1217 \$739 \$787 vdd pfet_03v3 L=0.5U W=6U AS=2.73P AD=2.73P PS=10.82U
+ PD=10.82U
M$264 \$1217 \$737 vdd vdd pfet_03v3 L=0.5U W=6U AS=2.73P AD=2.73P PS=10.82U
+ PD=10.82U
M$266 vdd \$1088 \$788 vdd pfet_03v3 L=0.5U W=3U AS=1.95P AD=1.95P PS=7.3U
+ PD=7.3U
M$267 vdd \$741 \$1088 vdd pfet_03v3 L=0.5U W=3U AS=1.95P AD=1.95P PS=7.3U
+ PD=7.3U
M$268 \$1088 \$1089 vdd vdd pfet_03v3 L=0.5U W=3U AS=1.95P AD=1.95P PS=7.3U
+ PD=7.3U
M$269 \$1218 \$1064 \$1089 vdd pfet_03v3 L=0.5U W=6U AS=2.73P AD=2.73P
+ PS=10.82U PD=10.82U
M$271 \$1218 \$1090 vdd vdd pfet_03v3 L=0.5U W=6U AS=2.73P AD=2.73P PS=10.82U
+ PD=10.82U
M$273 vdd \$684 \$1090 vdd pfet_03v3 L=0.5U W=3U AS=1.95P AD=1.95P PS=7.3U
+ PD=7.3U
M$274 \$1090 \$683 vdd vdd pfet_03v3 L=0.5U W=3U AS=1.95P AD=1.95P PS=7.3U
+ PD=7.3U
M$275 vdd \$682 \$1064 vdd pfet_03v3 L=0.5U W=3U AS=1.95P AD=1.95P PS=7.3U
+ PD=7.3U
M$276 \$1064 \$681 vdd vdd pfet_03v3 L=0.5U W=3U AS=1.95P AD=1.95P PS=7.3U
+ PD=7.3U
M$277 \$1092 \$1091 vdd vdd pfet_03v3 L=0.5U W=3U AS=1.95P AD=1.95P PS=7.3U
+ PD=7.3U
M$278 \$1219 \$1092 vdd vdd pfet_03v3 L=0.5U W=6U AS=2.73P AD=2.73P PS=10.82U
+ PD=10.82U
M$280 \$1220 \$1091 vdd vdd pfet_03v3 L=0.5U W=6U AS=2.73P AD=2.73P PS=10.82U
+ PD=10.82U
M$282 \$1220 \$1094 \$1067 vdd pfet_03v3 L=0.5U W=6U AS=2.73P AD=2.73P
+ PS=10.82U PD=10.82U
M$284 \$1219 \$1095 \$1067 vdd pfet_03v3 L=0.5U W=6U AS=2.73P AD=2.73P
+ PS=10.82U PD=10.82U
M$286 vdd \$1094 \$1095 vdd pfet_03v3 L=0.5U W=3U AS=1.95P AD=1.95P PS=7.3U
+ PD=7.3U
M$287 \$1097 \$1096 vdd vdd pfet_03v3 L=0.5U W=3U AS=1.95P AD=1.95P PS=7.3U
+ PD=7.3U
M$288 \$1221 \$1097 vdd vdd pfet_03v3 L=0.5U W=6U AS=2.73P AD=2.73P PS=10.82U
+ PD=10.82U
M$290 \$1222 \$1096 vdd vdd pfet_03v3 L=0.5U W=6U AS=2.73P AD=2.73P PS=10.82U
+ PD=10.82U
M$292 \$1222 \$1099 \$1069 vdd pfet_03v3 L=0.5U W=6U AS=2.73P AD=2.73P
+ PS=10.82U PD=10.82U
M$294 \$1221 \$1100 \$1069 vdd pfet_03v3 L=0.5U W=6U AS=2.73P AD=2.73P
+ PS=10.82U PD=10.82U
M$296 vdd \$1099 \$1100 vdd pfet_03v3 L=0.5U W=3U AS=1.95P AD=1.95P PS=7.3U
+ PD=7.3U
M$297 \$1102 \$1101 vdd vdd pfet_03v3 L=0.5U W=3U AS=1.95P AD=1.95P PS=7.3U
+ PD=7.3U
M$298 \$1223 \$1102 vdd vdd pfet_03v3 L=0.5U W=6U AS=2.73P AD=2.73P PS=10.82U
+ PD=10.82U
M$300 \$1224 \$1101 vdd vdd pfet_03v3 L=0.5U W=6U AS=2.73P AD=2.73P PS=10.82U
+ PD=10.82U
M$302 \$1224 \$1104 \$1071 vdd pfet_03v3 L=0.5U W=6U AS=2.73P AD=2.73P
+ PS=10.82U PD=10.82U
M$304 \$1223 \$1105 \$1071 vdd pfet_03v3 L=0.5U W=6U AS=2.73P AD=2.73P
+ PS=10.82U PD=10.82U
M$306 vdd \$1104 \$1105 vdd pfet_03v3 L=0.5U W=3U AS=1.95P AD=1.95P PS=7.3U
+ PD=7.3U
M$307 \$1107 \$1106 vdd vdd pfet_03v3 L=0.5U W=3U AS=1.95P AD=1.95P PS=7.3U
+ PD=7.3U
M$308 \$1225 \$1107 vdd vdd pfet_03v3 L=0.5U W=6U AS=2.73P AD=2.73P PS=10.82U
+ PD=10.82U
M$310 \$1226 \$1106 vdd vdd pfet_03v3 L=0.5U W=6U AS=2.73P AD=2.73P PS=10.82U
+ PD=10.82U
M$312 \$1226 \$1109 \$1073 vdd pfet_03v3 L=0.5U W=6U AS=2.73P AD=2.73P
+ PS=10.82U PD=10.82U
M$314 \$1225 \$1110 \$1073 vdd pfet_03v3 L=0.5U W=6U AS=2.73P AD=2.73P
+ PS=10.82U PD=10.82U
M$316 vdd \$1109 \$1110 vdd pfet_03v3 L=0.5U W=3U AS=1.95P AD=1.95P PS=7.3U
+ PD=7.3U
M$317 \$1112 \$1111 vdd vdd pfet_03v3 L=0.5U W=3U AS=1.95P AD=1.95P PS=7.3U
+ PD=7.3U
M$318 \$1227 \$1112 vdd vdd pfet_03v3 L=0.5U W=6U AS=2.73P AD=2.73P PS=10.82U
+ PD=10.82U
M$320 \$1228 \$1111 vdd vdd pfet_03v3 L=0.5U W=6U AS=2.73P AD=2.73P PS=10.82U
+ PD=10.82U
M$322 \$1228 \$1114 \$1075 vdd pfet_03v3 L=0.5U W=6U AS=2.73P AD=2.73P
+ PS=10.82U PD=10.82U
M$324 \$1227 \$1115 \$1075 vdd pfet_03v3 L=0.5U W=6U AS=2.73P AD=2.73P
+ PS=10.82U PD=10.82U
M$326 vdd \$1114 \$1115 vdd pfet_03v3 L=0.5U W=3U AS=1.95P AD=1.95P PS=7.3U
+ PD=7.3U
M$327 \$1117 \$1116 vdd vdd pfet_03v3 L=0.5U W=3U AS=1.95P AD=1.95P PS=7.3U
+ PD=7.3U
M$328 \$1229 \$1117 vdd vdd pfet_03v3 L=0.5U W=6U AS=2.73P AD=2.73P PS=10.82U
+ PD=10.82U
M$330 \$1230 \$1116 vdd vdd pfet_03v3 L=0.5U W=6U AS=2.73P AD=2.73P PS=10.82U
+ PD=10.82U
M$332 \$1230 \$1119 \$1077 vdd pfet_03v3 L=0.5U W=6U AS=2.73P AD=2.73P
+ PS=10.82U PD=10.82U
M$334 \$1229 \$1120 \$1077 vdd pfet_03v3 L=0.5U W=6U AS=2.73P AD=2.73P
+ PS=10.82U PD=10.82U
M$336 vdd \$1119 \$1120 vdd pfet_03v3 L=0.5U W=3U AS=1.95P AD=1.95P PS=7.3U
+ PD=7.3U
M$337 \$1122 \$1121 vdd vdd pfet_03v3 L=0.5U W=3U AS=1.95P AD=1.95P PS=7.3U
+ PD=7.3U
M$338 \$1231 \$1122 vdd vdd pfet_03v3 L=0.5U W=6U AS=2.73P AD=2.73P PS=10.82U
+ PD=10.82U
M$340 \$1232 \$1121 vdd vdd pfet_03v3 L=0.5U W=6U AS=2.73P AD=2.73P PS=10.82U
+ PD=10.82U
M$342 \$1232 \$1124 \$1079 vdd pfet_03v3 L=0.5U W=6U AS=2.73P AD=2.73P
+ PS=10.82U PD=10.82U
M$344 \$1231 \$1125 \$1079 vdd pfet_03v3 L=0.5U W=6U AS=2.73P AD=2.73P
+ PS=10.82U PD=10.82U
M$346 vdd \$1124 \$1125 vdd pfet_03v3 L=0.5U W=3U AS=1.95P AD=1.95P PS=7.3U
+ PD=7.3U
M$347 \$1127 \$1126 vdd vdd pfet_03v3 L=0.5U W=3U AS=1.95P AD=1.95P PS=7.3U
+ PD=7.3U
M$348 \$1233 \$1127 vdd vdd pfet_03v3 L=0.5U W=6U AS=2.73P AD=2.73P PS=10.82U
+ PD=10.82U
M$350 \$1234 \$1126 vdd vdd pfet_03v3 L=0.5U W=6U AS=2.73P AD=2.73P PS=10.82U
+ PD=10.82U
M$352 \$1234 \$1129 \$1081 vdd pfet_03v3 L=0.5U W=6U AS=2.73P AD=2.73P
+ PS=10.82U PD=10.82U
M$354 \$1233 \$1130 \$1081 vdd pfet_03v3 L=0.5U W=6U AS=2.73P AD=2.73P
+ PS=10.82U PD=10.82U
M$356 vdd \$1129 \$1130 vdd pfet_03v3 L=0.5U W=3U AS=1.95P AD=1.95P PS=7.3U
+ PD=7.3U
M$357 \$1132 \$1131 vdd vdd pfet_03v3 L=0.5U W=3U AS=1.95P AD=1.95P PS=7.3U
+ PD=7.3U
M$358 \$1235 \$1132 vdd vdd pfet_03v3 L=0.5U W=6U AS=2.73P AD=2.73P PS=10.82U
+ PD=10.82U
M$360 \$1236 \$1131 vdd vdd pfet_03v3 L=0.5U W=6U AS=2.73P AD=2.73P PS=10.82U
+ PD=10.82U
M$362 \$1236 \$1134 \$1083 vdd pfet_03v3 L=0.5U W=6U AS=2.73P AD=2.73P
+ PS=10.82U PD=10.82U
M$364 \$1235 \$1135 \$1083 vdd pfet_03v3 L=0.5U W=6U AS=2.73P AD=2.73P
+ PS=10.82U PD=10.82U
M$366 vdd \$1134 \$1135 vdd pfet_03v3 L=0.5U W=3U AS=1.95P AD=1.95P PS=7.3U
+ PD=7.3U
M$367 vdd \$1073 \$1136 vdd pfet_03v3 L=0.5U W=3U AS=1.95P AD=1.95P PS=7.3U
+ PD=7.3U
M$368 \$1136 \$1071 vdd vdd pfet_03v3 L=0.5U W=3U AS=1.95P AD=1.95P PS=7.3U
+ PD=7.3U
M$369 vdd \$1069 \$1137 vdd pfet_03v3 L=0.5U W=3U AS=1.95P AD=1.95P PS=7.3U
+ PD=7.3U
M$370 \$1137 \$1067 vdd vdd pfet_03v3 L=0.5U W=3U AS=1.95P AD=1.95P PS=7.3U
+ PD=7.3U
M$371 \$1237 \$1137 vdd vdd pfet_03v3 L=0.5U W=6U AS=2.73P AD=2.73P PS=10.82U
+ PD=10.82U
M$373 \$1237 \$1136 \$865 vdd pfet_03v3 L=0.5U W=6U AS=2.73P AD=2.73P PS=10.82U
+ PD=10.82U
M$375 vdd \$1083 \$1138 vdd pfet_03v3 L=0.5U W=3U AS=1.95P AD=1.95P PS=7.3U
+ PD=7.3U
M$376 \$1138 \$786 vdd vdd pfet_03v3 L=0.5U W=3U AS=1.95P AD=1.95P PS=7.3U
+ PD=7.3U
M$377 fout \$1138 vdd vdd pfet_03v3 L=0.5U W=3U AS=1.95P AD=1.95P PS=7.3U
+ PD=7.3U
M$378 \$1238 fout \$789 vdd pfet_03v3 L=0.5U W=6U AS=2.73P AD=2.73P PS=10.82U
+ PD=10.82U
M$380 \$1238 define vdd vdd pfet_03v3 L=0.5U W=6U AS=2.73P AD=2.73P PS=10.82U
+ PD=10.82U
M$382 \$1624 \$1442 vdd vdd pfet_03v3 L=0.5U W=3U AS=1.95P AD=1.95P PS=7.3U
+ PD=7.3U
M$383 \$1442 fin vdd vdd pfet_03v3 L=0.5U W=3U AS=1.95P AD=1.95P PS=7.3U PD=7.3U
M$384 \$1904 \$472 vdd vdd pfet_03v3 L=0.5U W=3U AS=1.95P AD=1.95P PS=7.3U
+ PD=7.3U
M$385 \$1444 \$1442 \$1443 vdd pfet_03v3 L=0.5U W=3U AS=1.95P AD=1.95P PS=7.3U
+ PD=7.3U
M$386 \$1443 \$1624 \$1904 vdd pfet_03v3 L=0.5U W=3U AS=1.95P AD=1.95P PS=7.3U
+ PD=7.3U
M$387 vdd \$1508 \$1444 vdd pfet_03v3 L=0.5U W=3U AS=1.95P AD=1.95P PS=7.3U
+ PD=7.3U
M$388 \$1508 \$1443 vdd vdd pfet_03v3 L=0.5U W=3U AS=1.95P AD=1.95P PS=7.3U
+ PD=7.3U
M$389 \$1444 \$1445 vdd vdd pfet_03v3 L=0.5U W=3U AS=1.95P AD=1.95P PS=7.3U
+ PD=7.3U
M$390 \$1446 \$1442 \$1508 vdd pfet_03v3 L=0.5U W=3U AS=1.95P AD=1.95P PS=7.3U
+ PD=7.3U
M$391 vdd vss \$1445 vdd pfet_03v3 L=0.5U W=3U AS=1.95P AD=1.95P PS=7.3U PD=7.3U
M$392 vdd \$1446 \$1509 vdd pfet_03v3 L=0.5U W=3U AS=1.95P AD=1.95P PS=7.3U
+ PD=7.3U
M$393 \$1447 \$1624 \$1446 vdd pfet_03v3 L=0.5U W=3U AS=1.95P AD=1.95P PS=7.3U
+ PD=7.3U
M$394 vdd \$1509 \$1447 vdd pfet_03v3 L=0.5U W=3U AS=1.95P AD=1.95P PS=7.3U
+ PD=7.3U
M$395 \$1509 \$1445 vdd vdd pfet_03v3 L=0.5U W=3U AS=1.95P AD=1.95P PS=7.3U
+ PD=7.3U
M$396 \$1448 \$1509 vdd vdd pfet_03v3 L=0.5U W=3U AS=1.95P AD=1.95P PS=7.3U
+ PD=7.3U
M$397 vdd \$1905 \$1513 vdd pfet_03v3 L=0.5U W=3U AS=1.95P AD=1.95P PS=7.3U
+ PD=7.3U
M$398 vdd \$472 \$1905 vdd pfet_03v3 L=0.5U W=3U AS=1.95P AD=1.95P PS=7.3U
+ PD=7.3U
M$399 \$1449 \$1448 vdd vdd pfet_03v3 L=0.5U W=6U AS=2.73P AD=2.73P PS=10.82U
+ PD=10.82U
M$401 \$1449 \$737 \$1450 vdd pfet_03v3 L=0.5U W=6U AS=2.73P AD=2.73P PS=10.82U
+ PD=10.82U
M$403 \$1905 \$1451 vdd vdd pfet_03v3 L=0.5U W=3U AS=1.95P AD=1.95P PS=7.3U
+ PD=7.3U
M$404 \$1451 \$1450 vdd vdd pfet_03v3 L=0.5U W=3U AS=1.95P AD=1.95P PS=7.3U
+ PD=7.3U
M$405 vdd \$472 \$1906 vdd pfet_03v3 L=0.5U W=3U AS=1.95P AD=1.95P PS=7.3U
+ PD=7.3U
M$406 vdd \$1510 \$472 vdd pfet_03v3 L=0.5U W=3U AS=1.95P AD=1.95P PS=7.3U
+ PD=7.3U
M$407 \$1907 \$472 vdd vdd pfet_03v3 L=0.5U W=3U AS=1.95P AD=1.95P PS=7.3U
+ PD=7.3U
M$408 \$1511 \$1636 \$1907 vdd pfet_03v3 L=0.5U W=3U AS=1.95P AD=1.95P PS=7.3U
+ PD=7.3U
M$409 \$472 \$1511 vdd vdd pfet_03v3 L=0.5U W=3U AS=1.95P AD=1.95P PS=7.3U
+ PD=7.3U
M$410 \$1510 vss vdd vdd pfet_03v3 L=0.5U W=3U AS=1.95P AD=1.95P PS=7.3U PD=7.3U
M$411 \$1452 \$1363 \$1511 vdd pfet_03v3 L=0.5U W=3U AS=1.95P AD=1.95P PS=7.3U
+ PD=7.3U
M$412 vdd \$1510 \$1908 vdd pfet_03v3 L=0.5U W=3U AS=1.95P AD=1.95P PS=7.3U
+ PD=7.3U
M$413 vdd \$1512 \$1452 vdd pfet_03v3 L=0.5U W=3U AS=1.95P AD=1.95P PS=7.3U
+ PD=7.3U
M$414 \$1453 \$1636 \$1512 vdd pfet_03v3 L=0.5U W=3U AS=1.95P AD=1.95P PS=7.3U
+ PD=7.3U
M$415 \$1908 \$1452 vdd vdd pfet_03v3 L=0.5U W=3U AS=1.95P AD=1.95P PS=7.3U
+ PD=7.3U
M$416 \$1512 \$1363 \$1908 vdd pfet_03v3 L=0.5U W=3U AS=1.95P AD=1.95P PS=7.3U
+ PD=7.3U
M$417 vdd \$1513 \$1453 vdd pfet_03v3 L=0.5U W=3U AS=1.95P AD=1.95P PS=7.3U
+ PD=7.3U
M$418 vdd fin \$1363 vdd pfet_03v3 L=0.5U W=3U AS=1.95P AD=1.95P PS=7.3U PD=7.3U
M$419 vdd \$1363 \$1636 vdd pfet_03v3 L=0.5U W=3U AS=1.95P AD=1.95P PS=7.3U
+ PD=7.3U
M$420 \$1625 \$1454 vdd vdd pfet_03v3 L=0.5U W=3U AS=1.95P AD=1.95P PS=7.3U
+ PD=7.3U
M$421 \$1454 \$472 vdd vdd pfet_03v3 L=0.5U W=3U AS=1.95P AD=1.95P PS=7.3U
+ PD=7.3U
M$422 \$1909 \$1515 vdd vdd pfet_03v3 L=0.5U W=3U AS=1.95P AD=1.95P PS=7.3U
+ PD=7.3U
M$423 \$1456 \$1454 \$1455 vdd pfet_03v3 L=0.5U W=3U AS=1.95P AD=1.95P PS=7.3U
+ PD=7.3U
M$424 vdd \$1514 \$1456 vdd pfet_03v3 L=0.5U W=3U AS=1.95P AD=1.95P PS=7.3U
+ PD=7.3U
M$425 \$1455 \$1625 \$1909 vdd pfet_03v3 L=0.5U W=3U AS=1.95P AD=1.95P PS=7.3U
+ PD=7.3U
M$426 \$1514 \$1455 vdd vdd pfet_03v3 L=0.5U W=3U AS=1.95P AD=1.95P PS=7.3U
+ PD=7.3U
M$427 \$1456 \$1457 vdd vdd pfet_03v3 L=0.5U W=3U AS=1.95P AD=1.95P PS=7.3U
+ PD=7.3U
M$428 \$1458 \$1454 \$1514 vdd pfet_03v3 L=0.5U W=3U AS=1.95P AD=1.95P PS=7.3U
+ PD=7.3U
M$429 vdd \$1 \$1457 vdd pfet_03v3 L=0.5U W=3U AS=1.95P AD=1.95P PS=7.3U PD=7.3U
M$430 vdd \$1458 \$1515 vdd pfet_03v3 L=0.5U W=3U AS=1.95P AD=1.95P PS=7.3U
+ PD=7.3U
M$431 \$1459 \$1625 \$1458 vdd pfet_03v3 L=0.5U W=3U AS=1.95P AD=1.95P PS=7.3U
+ PD=7.3U
M$432 vdd \$1515 \$1459 vdd pfet_03v3 L=0.5U W=3U AS=1.95P AD=1.95P PS=7.3U
+ PD=7.3U
M$433 \$1515 \$1457 vdd vdd pfet_03v3 L=0.5U W=3U AS=1.95P AD=1.95P PS=7.3U
+ PD=7.3U
M$434 \$1091 pd1 vdd vdd pfet_03v3 L=0.5U W=3U AS=1.95P AD=1.95P PS=7.3U PD=7.3U
M$435 \$1094 \$1515 vdd vdd pfet_03v3 L=0.5U W=3U AS=1.95P AD=1.95P PS=7.3U
+ PD=7.3U
M$436 \$1626 \$1460 vdd vdd pfet_03v3 L=0.5U W=3U AS=1.95P AD=1.95P PS=7.3U
+ PD=7.3U
M$437 \$1460 \$1094 vdd vdd pfet_03v3 L=0.5U W=3U AS=1.95P AD=1.95P PS=7.3U
+ PD=7.3U
M$438 \$1910 \$1517 vdd vdd pfet_03v3 L=0.5U W=3U AS=1.95P AD=1.95P PS=7.3U
+ PD=7.3U
M$439 \$1462 \$1460 \$1461 vdd pfet_03v3 L=0.5U W=3U AS=1.95P AD=1.95P PS=7.3U
+ PD=7.3U