* NGSPICE file created from asc_dual_psd_def_20250809.ext - technology: gf180mcuD

.subckt nfet$4 a_242_n60# a_38_n60# a_n84_0# a_342_0# a_138_0# VSUBS
X0 a_342_0# a_242_n60# a_138_0# VSUBS nfet_03v3 ad=0.61p pd=3.22u as=0.26p ps=1.52u w=1u l=0.5u
X1 a_138_0# a_38_n60# a_n84_0# VSUBS nfet_03v3 ad=0.26p pd=1.52u as=0.61p ps=3.22u w=1u l=0.5u
.ends

.subckt pfet$30 w_n180_n88# a_n92_0# a_138_0# a_38_n136#
X0 a_138_0# a_38_n136# a_n92_0# w_n180_n88# pfet_03v3 ad=1.95p pd=7.3u as=1.95p ps=7.3u w=3u l=0.5u
.ends

.subckt nfet$2 a_38_n60# a_n84_0# a_138_0# VSUBS
X0 a_138_0# a_38_n60# a_n84_0# VSUBS nfet_03v3 ad=0.61p pd=3.22u as=0.61p ps=3.22u w=1u l=0.5u
.ends

.subckt nfet$15 a_38_n60# a_n84_0# a_138_0# VSUBS
X0 a_138_0# a_38_n60# a_n84_0# VSUBS nfet_03v3 ad=0.61p pd=3.22u as=0.61p ps=3.22u w=1u l=0.5u
.ends

.subckt pfet w_n180_n88# a_n92_0# a_342_0# a_138_0# a_38_n136# a_242_n136#
X0 a_342_0# a_242_n136# a_138_0# w_n180_n88# pfet_03v3 ad=1.95p pd=7.3u as=0.78p ps=3.52u w=3u l=0.5u
X1 a_138_0# a_38_n136# a_n92_0# w_n180_n88# pfet_03v3 ad=0.78p pd=3.52u as=1.95p ps=7.3u w=3u l=0.5u
.ends

.subckt pfet$14 w_n180_n88# a_n92_0# a_342_0# a_138_0# a_38_n136# a_242_n136#
X0 a_342_0# a_242_n136# a_138_0# w_n180_n88# pfet_03v3 ad=1.95p pd=7.3u as=0.78p ps=3.52u w=3u l=0.5u
X1 a_138_0# a_38_n136# a_n92_0# w_n180_n88# pfet_03v3 ad=0.78p pd=3.52u as=1.95p ps=7.3u w=3u l=0.5u
.ends

.subckt pfet$1 w_n180_n88# a_n92_0# a_138_0# a_38_n136#
X0 a_138_0# a_38_n136# a_n92_0# w_n180_n88# pfet_03v3 ad=1.95p pd=7.3u as=1.95p ps=7.3u w=3u l=0.5u
.ends

.subckt pfet$27 w_n180_n88# a_n92_0# a_138_0# a_38_n136#
X0 a_138_0# a_38_n136# a_n92_0# w_n180_n88# pfet_03v3 ad=1.95p pd=7.3u as=1.95p ps=7.3u w=3u l=0.5u
.ends

.subckt nfet$8 a_38_n60# a_n84_0# a_138_0# VSUBS
X0 a_138_0# a_38_n60# a_n84_0# VSUBS nfet_03v3 ad=0.61p pd=3.22u as=0.61p ps=3.22u w=1u l=0.5u
.ends

.subckt nfet$19 a_38_n60# a_n84_0# a_138_0# VSUBS
X0 a_138_0# a_38_n60# a_n84_0# VSUBS nfet_03v3 ad=0.61p pd=3.22u as=0.61p ps=3.22u w=1u l=0.5u
.ends

.subckt nfet$23 a_242_n60# a_38_n60# a_n84_0# a_342_0# a_138_0# VSUBS
X0 a_342_0# a_242_n60# a_138_0# VSUBS nfet_03v3 ad=0.61p pd=3.22u as=0.26p ps=1.52u w=1u l=0.5u
X1 a_138_0# a_38_n60# a_n84_0# VSUBS nfet_03v3 ad=0.26p pd=1.52u as=0.61p ps=3.22u w=1u l=0.5u
.ends

.subckt nfet$31 a_242_n60# a_38_n60# a_n84_0# a_342_0# a_138_0# VSUBS
X0 a_342_0# a_242_n60# a_138_0# VSUBS nfet_03v3 ad=0.61p pd=3.22u as=0.26p ps=1.52u w=1u l=0.5u
X1 a_138_0# a_38_n60# a_n84_0# VSUBS nfet_03v3 ad=0.26p pd=1.52u as=0.61p ps=3.22u w=1u l=0.5u
.ends

.subckt pfet$18 w_n180_n88# a_n92_0# a_138_0# a_38_n136#
X0 a_138_0# a_38_n136# a_n92_0# w_n180_n88# pfet_03v3 ad=1.95p pd=7.3u as=1.95p ps=7.3u w=3u l=0.5u
.ends

.subckt nfet$24 a_242_n60# a_38_n60# a_n84_0# a_342_0# a_138_0# VSUBS
X0 a_342_0# a_242_n60# a_138_0# VSUBS nfet_03v3 ad=0.61p pd=3.22u as=0.26p ps=1.52u w=1u l=0.5u
X1 a_138_0# a_38_n60# a_n84_0# VSUBS nfet_03v3 ad=0.26p pd=1.52u as=0.61p ps=3.22u w=1u l=0.5u
.ends

.subckt nfet$17 a_242_n60# a_38_n60# a_n84_0# a_342_0# a_138_0# VSUBS
X0 a_342_0# a_242_n60# a_138_0# VSUBS nfet_03v3 ad=0.61p pd=3.22u as=0.26p ps=1.52u w=1u l=0.5u
X1 a_138_0# a_38_n60# a_n84_0# VSUBS nfet_03v3 ad=0.26p pd=1.52u as=0.61p ps=3.22u w=1u l=0.5u
.ends

.subckt nfet$18 a_38_n60# a_n84_0# a_138_0# VSUBS
X0 a_138_0# a_38_n60# a_n84_0# VSUBS nfet_03v3 ad=0.61p pd=3.22u as=0.61p ps=3.22u w=1u l=0.5u
.ends

.subckt pfet$23 w_n180_n88# a_n92_0# a_342_0# a_138_0# a_38_n136# a_242_n136#
X0 a_342_0# a_242_n136# a_138_0# w_n180_n88# pfet_03v3 ad=1.95p pd=7.3u as=0.78p ps=3.52u w=3u l=0.5u
X1 a_138_0# a_38_n136# a_n92_0# w_n180_n88# pfet_03v3 ad=0.78p pd=3.52u as=1.95p ps=7.3u w=3u l=0.5u
.ends

.subckt pfet$8 w_n180_n88# a_n92_0# a_138_0# a_38_n136#
X0 a_138_0# a_38_n136# a_n92_0# w_n180_n88# pfet_03v3 ad=1.95p pd=7.3u as=1.95p ps=7.3u w=3u l=0.5u
.ends

.subckt pfet$16 w_n180_n88# a_n92_0# a_138_0# a_38_n136#
X0 a_138_0# a_38_n136# a_n92_0# w_n180_n88# pfet_03v3 ad=1.95p pd=7.3u as=1.95p ps=7.3u w=3u l=0.5u
.ends

.subckt nfet$22 a_38_n60# a_n84_0# a_138_0# VSUBS
X0 a_138_0# a_38_n60# a_n84_0# VSUBS nfet_03v3 ad=0.61p pd=3.22u as=0.61p ps=3.22u w=1u l=0.5u
.ends

.subckt pfet$21 w_n180_n88# a_n92_0# a_138_0# a_38_n136#
X0 a_138_0# a_38_n136# a_n92_0# w_n180_n88# pfet_03v3 ad=1.95p pd=7.3u as=1.95p ps=7.3u w=3u l=0.5u
.ends

.subckt pfet$6 w_n180_n88# a_n92_0# a_138_0# a_38_n136#
X0 a_138_0# a_38_n136# a_n92_0# w_n180_n88# pfet_03v3 ad=1.95p pd=7.3u as=1.95p ps=7.3u w=3u l=0.5u
.ends

.subckt nfet$9 a_242_n60# a_38_n60# a_n84_0# a_342_0# a_138_0# VSUBS
X0 a_342_0# a_242_n60# a_138_0# VSUBS nfet_03v3 ad=0.61p pd=3.22u as=0.26p ps=1.52u w=1u l=0.5u
X1 a_138_0# a_38_n60# a_n84_0# VSUBS nfet_03v3 ad=0.26p pd=1.52u as=0.61p ps=3.22u w=1u l=0.5u
.ends

.subckt nfet$20 a_242_n60# a_38_n60# a_n84_0# a_342_0# a_138_0# VSUBS
X0 a_342_0# a_242_n60# a_138_0# VSUBS nfet_03v3 ad=0.61p pd=3.22u as=0.26p ps=1.52u w=1u l=0.5u
X1 a_138_0# a_38_n60# a_n84_0# VSUBS nfet_03v3 ad=0.26p pd=1.52u as=0.61p ps=3.22u w=1u l=0.5u
.ends

.subckt nfet$13 a_38_n60# a_n84_0# a_138_0# VSUBS
X0 a_138_0# a_38_n60# a_n84_0# VSUBS nfet_03v3 ad=0.61p pd=3.22u as=0.61p ps=3.22u w=1u l=0.5u
.ends

.subckt nfet$3 a_38_n60# a_n84_0# a_138_0# VSUBS
X0 a_138_0# a_38_n60# a_n84_0# VSUBS nfet_03v3 ad=0.61p pd=3.22u as=0.61p ps=3.22u w=1u l=0.5u
.ends

.subckt pfet$4 w_n180_n88# a_n92_0# a_138_0# a_38_n136#
X0 a_138_0# a_38_n136# a_n92_0# w_n180_n88# pfet_03v3 ad=1.95p pd=7.3u as=1.95p ps=7.3u w=3u l=0.5u
.ends

.subckt nfet$7 a_242_n60# a_38_n60# a_n84_0# a_342_0# a_138_0# VSUBS
X0 a_342_0# a_242_n60# a_138_0# VSUBS nfet_03v3 ad=0.61p pd=3.22u as=0.26p ps=1.52u w=1u l=0.5u
X1 a_138_0# a_38_n60# a_n84_0# VSUBS nfet_03v3 ad=0.26p pd=1.52u as=0.61p ps=3.22u w=1u l=0.5u
.ends

.subckt pfet$12 w_n180_n88# a_n92_0# a_342_0# a_138_0# a_38_n136# a_242_n136#
X0 a_342_0# a_242_n136# a_138_0# w_n180_n88# pfet_03v3 ad=1.95p pd=7.3u as=0.78p ps=3.52u w=3u l=0.5u
X1 a_138_0# a_38_n136# a_n92_0# w_n180_n88# pfet_03v3 ad=0.78p pd=3.52u as=1.95p ps=7.3u w=3u l=0.5u
.ends

.subckt nfet$36 a_38_n60# a_n84_0# a_138_0# VSUBS
X0 a_138_0# a_38_n60# a_n84_0# VSUBS nfet_03v3 ad=0.61p pd=3.22u as=0.61p ps=3.22u w=1u l=0.5u
.ends

.subckt nfet$29 a_242_n60# a_38_n60# a_n84_0# a_342_0# a_138_0# VSUBS
X0 a_342_0# a_242_n60# a_138_0# VSUBS nfet_03v3 ad=0.61p pd=3.22u as=0.26p ps=1.52u w=1u l=0.5u
X1 a_138_0# a_38_n60# a_n84_0# VSUBS nfet_03v3 ad=0.26p pd=1.52u as=0.61p ps=3.22u w=1u l=0.5u
.ends

.subckt nfet a_242_n60# a_38_n60# a_n84_0# a_342_0# a_138_0# VSUBS
X0 a_342_0# a_242_n60# a_138_0# VSUBS nfet_03v3 ad=0.61p pd=3.22u as=0.26p ps=1.52u w=1u l=0.5u
X1 a_138_0# a_38_n60# a_n84_0# VSUBS nfet_03v3 ad=0.26p pd=1.52u as=0.61p ps=3.22u w=1u l=0.5u
.ends

.subckt nfet$11 a_38_n60# a_n84_0# a_138_0# VSUBS
X0 a_138_0# a_38_n60# a_n84_0# VSUBS nfet_03v3 ad=0.61p pd=3.22u as=0.61p ps=3.22u w=1u l=0.5u
.ends

.subckt pfet$2 w_n180_n88# a_n92_0# a_138_0# a_38_n136#
X0 a_138_0# a_38_n136# a_n92_0# w_n180_n88# pfet_03v3 ad=1.95p pd=7.3u as=1.95p ps=7.3u w=3u l=0.5u
.ends

.subckt pfet$28 w_n180_n88# a_n92_0# a_138_0# a_38_n136#
X0 a_138_0# a_38_n136# a_n92_0# w_n180_n88# pfet_03v3 ad=1.95p pd=7.3u as=1.95p ps=7.3u w=3u l=0.5u
.ends

.subckt nfet$5 a_38_n60# a_n84_0# a_138_0# VSUBS
X0 a_138_0# a_38_n60# a_n84_0# VSUBS nfet_03v3 ad=0.61p pd=3.22u as=0.61p ps=3.22u w=1u l=0.5u
.ends

.subckt nfet$16 a_242_n60# a_38_n60# a_n84_0# a_342_0# a_138_0# VSUBS
X0 a_342_0# a_242_n60# a_138_0# VSUBS nfet_03v3 ad=0.61p pd=3.22u as=0.26p ps=1.52u w=1u l=0.5u
X1 a_138_0# a_38_n60# a_n84_0# VSUBS nfet_03v3 ad=0.26p pd=1.52u as=0.61p ps=3.22u w=1u l=0.5u
.ends

.subckt pfet$10 w_n180_n88# a_n92_0# a_342_0# a_138_0# a_38_n136# a_242_n136#
X0 a_342_0# a_242_n136# a_138_0# w_n180_n88# pfet_03v3 ad=1.95p pd=7.3u as=0.78p ps=3.52u w=3u l=0.5u
X1 a_138_0# a_38_n136# a_n92_0# w_n180_n88# pfet_03v3 ad=0.78p pd=3.52u as=1.95p ps=7.3u w=3u l=0.5u
.ends

.subckt nfet$34 a_38_n60# a_n84_0# a_138_0# VSUBS
X0 a_138_0# a_38_n60# a_n84_0# VSUBS nfet_03v3 ad=0.61p pd=3.22u as=0.61p ps=3.22u w=1u l=0.5u
.ends

.subckt nfet$21 a_38_n60# a_n84_0# a_138_0# VSUBS
X0 a_138_0# a_38_n60# a_n84_0# VSUBS nfet_03v3 ad=0.61p pd=3.22u as=0.61p ps=3.22u w=1u l=0.5u
.ends

.subckt nfet$27 a_38_n60# a_n84_0# a_138_0# VSUBS
X0 a_138_0# a_38_n60# a_n84_0# VSUBS nfet_03v3 ad=0.61p pd=3.22u as=0.61p ps=3.22u w=1u l=0.5u
.ends

.subckt pfet$26 w_n180_n88# a_n92_0# a_138_0# a_38_n136#
X0 a_138_0# a_38_n136# a_n92_0# w_n180_n88# pfet_03v3 ad=1.95p pd=7.3u as=1.95p ps=7.3u w=3u l=0.5u
.ends

.subckt pfet$15 w_n180_n88# a_n92_0# a_138_0# a_38_n136#
X0 a_138_0# a_38_n136# a_n92_0# w_n180_n88# pfet_03v3 ad=1.95p pd=7.3u as=1.95p ps=7.3u w=3u l=0.5u
.ends

.subckt pfet$19 w_n180_n88# a_n92_0# a_138_0# a_38_n136#
X0 a_138_0# a_38_n136# a_n92_0# w_n180_n88# pfet_03v3 ad=1.95p pd=7.3u as=1.95p ps=7.3u w=3u l=0.5u
.ends

.subckt nfet$32 a_38_n60# a_n84_0# a_138_0# VSUBS
X0 a_138_0# a_38_n60# a_n84_0# VSUBS nfet_03v3 ad=0.61p pd=3.22u as=0.61p ps=3.22u w=1u l=0.5u
.ends

.subckt nfet$25 a_242_n60# a_38_n60# a_n84_0# a_342_0# a_138_0# VSUBS
X0 a_342_0# a_242_n60# a_138_0# VSUBS nfet_03v3 ad=0.61p pd=3.22u as=0.26p ps=1.52u w=1u l=0.5u
X1 a_138_0# a_38_n60# a_n84_0# VSUBS nfet_03v3 ad=0.26p pd=1.52u as=0.61p ps=3.22u w=1u l=0.5u
.ends

.subckt pfet$31 w_n180_n88# a_n92_0# a_342_0# a_138_0# a_38_n136# a_242_n136#
X0 a_342_0# a_242_n136# a_138_0# w_n180_n88# pfet_03v3 ad=1.95p pd=7.3u as=0.78p ps=3.52u w=3u l=0.5u
X1 a_138_0# a_38_n136# a_n92_0# w_n180_n88# pfet_03v3 ad=0.78p pd=3.52u as=1.95p ps=7.3u w=3u l=0.5u
.ends

.subckt pfet$24 w_n180_n88# a_n92_0# a_342_0# a_138_0# a_38_n136# a_242_n136#
X0 a_342_0# a_242_n136# a_138_0# w_n180_n88# pfet_03v3 ad=1.95p pd=7.3u as=0.78p ps=3.52u w=3u l=0.5u
X1 a_138_0# a_38_n136# a_n92_0# w_n180_n88# pfet_03v3 ad=0.78p pd=3.52u as=1.95p ps=7.3u w=3u l=0.5u
.ends

.subckt nfet$1 a_242_n60# a_38_n60# a_n84_0# a_342_0# a_138_0# VSUBS
X0 a_342_0# a_242_n60# a_138_0# VSUBS nfet_03v3 ad=0.61p pd=3.22u as=0.26p ps=1.52u w=1u l=0.5u
X1 a_138_0# a_38_n60# a_n84_0# VSUBS nfet_03v3 ad=0.26p pd=1.52u as=0.61p ps=3.22u w=1u l=0.5u
.ends

.subckt pfet$9 w_n180_n88# a_n92_0# a_138_0# a_38_n136#
X0 a_138_0# a_38_n136# a_n92_0# w_n180_n88# pfet_03v3 ad=1.95p pd=7.3u as=1.95p ps=7.3u w=3u l=0.5u
.ends

.subckt pfet$13 w_n180_n88# a_n92_0# a_138_0# a_38_n136#
X0 a_138_0# a_38_n136# a_n92_0# w_n180_n88# pfet_03v3 ad=1.95p pd=7.3u as=1.95p ps=7.3u w=3u l=0.5u
.ends

.subckt nfet$30 a_38_n60# a_n84_0# a_138_0# VSUBS
X0 a_138_0# a_38_n60# a_n84_0# VSUBS nfet_03v3 ad=0.61p pd=3.22u as=0.61p ps=3.22u w=1u l=0.5u
.ends

.subckt pfet$17 w_n180_n88# a_n92_0# a_138_0# a_38_n136#
X0 a_138_0# a_38_n136# a_n92_0# w_n180_n88# pfet_03v3 ad=1.95p pd=7.3u as=1.95p ps=7.3u w=3u l=0.5u
.ends

.subckt pfet$22 w_n180_n88# a_n92_0# a_138_0# a_38_n136#
X0 a_138_0# a_38_n136# a_n92_0# w_n180_n88# pfet_03v3 ad=1.95p pd=7.3u as=1.95p ps=7.3u w=3u l=0.5u
.ends

.subckt pfet$7 w_n180_n88# a_n92_0# a_138_0# a_38_n136#
X0 a_138_0# a_38_n136# a_n92_0# w_n180_n88# pfet_03v3 ad=1.95p pd=7.3u as=1.95p ps=7.3u w=3u l=0.5u
.ends

.subckt nfet$14 a_38_n60# a_n84_0# a_138_0# VSUBS
X0 a_138_0# a_38_n60# a_n84_0# VSUBS nfet_03v3 ad=0.61p pd=3.22u as=0.61p ps=3.22u w=1u l=0.5u
.ends

.subckt pfet$20 w_n180_n88# a_n92_0# a_138_0# a_38_n136#
X0 a_138_0# a_38_n136# a_n92_0# w_n180_n88# pfet_03v3 ad=1.95p pd=7.3u as=1.95p ps=7.3u w=3u l=0.5u
.ends

.subckt pfet$5 w_n180_n88# a_n92_0# a_138_0# a_38_n136#
X0 a_138_0# a_38_n136# a_n92_0# w_n180_n88# pfet_03v3 ad=1.95p pd=7.3u as=1.95p ps=7.3u w=3u l=0.5u
.ends

.subckt nfet$12 a_38_n60# a_n84_0# a_138_0# VSUBS
X0 a_138_0# a_38_n60# a_n84_0# VSUBS nfet_03v3 ad=0.61p pd=3.22u as=0.61p ps=3.22u w=1u l=0.5u
.ends

.subckt pfet$3 w_n180_n88# a_n92_0# a_138_0# a_38_n136#
X0 a_138_0# a_38_n136# a_n92_0# w_n180_n88# pfet_03v3 ad=1.95p pd=7.3u as=1.95p ps=7.3u w=3u l=0.5u
.ends

.subckt pfet$29 w_n180_n88# a_n92_0# a_138_0# a_38_n136#
X0 a_138_0# a_38_n136# a_n92_0# w_n180_n88# pfet_03v3 ad=1.95p pd=7.3u as=1.95p ps=7.3u w=3u l=0.5u
.ends

.subckt nfet$6 a_38_n60# a_n84_0# a_138_0# VSUBS
X0 a_138_0# a_38_n60# a_n84_0# VSUBS nfet_03v3 ad=0.61p pd=3.22u as=0.61p ps=3.22u w=1u l=0.5u
.ends

.subckt pfet$11 w_n180_n88# a_n92_0# a_342_0# a_138_0# a_38_n136# a_242_n136#
X0 a_342_0# a_242_n136# a_138_0# w_n180_n88# pfet_03v3 ad=1.95p pd=7.3u as=0.78p ps=3.52u w=3u l=0.5u
X1 a_138_0# a_38_n136# a_n92_0# w_n180_n88# pfet_03v3 ad=0.78p pd=3.52u as=1.95p ps=7.3u w=3u l=0.5u
.ends

.subckt nfet$35 a_38_n60# a_n84_0# a_138_0# VSUBS
X0 a_138_0# a_38_n60# a_n84_0# VSUBS nfet_03v3 ad=0.61p pd=3.22u as=0.61p ps=3.22u w=1u l=0.5u
.ends

.subckt nfet$28 a_38_n60# a_n84_0# a_138_0# VSUBS
X0 a_138_0# a_38_n60# a_n84_0# VSUBS nfet_03v3 ad=0.61p pd=3.22u as=0.61p ps=3.22u w=1u l=0.5u
.ends

.subckt nfet$10 a_242_n60# a_38_n60# a_n84_0# a_342_0# a_138_0# VSUBS
X0 a_342_0# a_242_n60# a_138_0# VSUBS nfet_03v3 ad=0.61p pd=3.22u as=0.26p ps=1.52u w=1u l=0.5u
X1 a_138_0# a_38_n60# a_n84_0# VSUBS nfet_03v3 ad=0.26p pd=1.52u as=0.61p ps=3.22u w=1u l=0.5u
.ends

.subckt nfet$33 a_38_n60# a_n84_0# a_138_0# VSUBS
X0 a_138_0# a_38_n60# a_n84_0# VSUBS nfet_03v3 ad=0.61p pd=3.22u as=0.61p ps=3.22u w=1u l=0.5u
.ends

.subckt nfet$26 a_38_n60# a_n84_0# a_138_0# VSUBS
X0 a_138_0# a_38_n60# a_n84_0# VSUBS nfet_03v3 ad=0.61p pd=3.22u as=0.61p ps=3.22u w=1u l=0.5u
.ends

.subckt pfet$32 w_n180_n88# a_n92_0# a_138_0# a_38_n136#
X0 a_138_0# a_38_n136# a_n92_0# w_n180_n88# pfet_03v3 ad=1.95p pd=7.3u as=1.95p ps=7.3u w=3u l=0.5u
.ends

.subckt pfet$25 w_n180_n88# a_n92_0# a_342_0# a_138_0# a_38_n136# a_242_n136#
X0 a_342_0# a_242_n136# a_138_0# w_n180_n88# pfet_03v3 ad=1.95p pd=7.3u as=0.78p ps=3.52u w=3u l=0.5u
X1 a_138_0# a_38_n136# a_n92_0# w_n180_n88# pfet_03v3 ad=0.78p pd=3.52u as=1.95p ps=7.3u w=3u l=0.5u
.ends

.subckt asc_dual_psd_def_20250809 vdd vss pd1 pd2 pd3 pd4 pd5 pd6 pd7 pd8 pd9 fout
+ sd1 sd2 sd3 sd4 sd5 sd6 sd7 sd8 sd9 fin define
Xnfet$4_5 m1_26676_16080# m1_26676_16080# vss vss m1_28239_17358# vss nfet$4
Xpfet$30_0 vdd vdd m1_n7320_25516# m1_n7186_25858# pfet$30
Xnfet$2_2 m1_6275_17836# m1_7555_16080# m1_7088_18030# vss nfet$2
Xnfet$15_76 m1_28492_25858# vss m1_28634_25662# vss nfet$15
Xnfet$15_54 m1_24309_25858# vss m1_24451_25662# vss nfet$15
Xnfet$15_43 m1_15461_25858# vss m1_15598_25662# vss nfet$15
Xnfet$15_21 m1_11278_25858# m1_11902_25662# m1_11639_23922# vss nfet$15
Xnfet$15_65 m1_28492_25858# vss m1_25107_21786# vss nfet$15
Xnfet$15_32 m1_15461_25858# m1_17546_25658# m1_18339_24542# vss nfet$15
Xnfet$15_10 m1_7577_25858# vss m1_9973_24542# vss nfet$15
Xnfet$2_15 m1_5302_17714# vss m1_8172_15778# vss nfet$2
Xnfet$2_59 m1_17851_17714# vss m1_20721_15778# vss nfet$2
Xnfet$2_37 m1_n7513_20152# vss m1_n2605_16080# vss nfet$2
Xnfet$2_26 m1_5302_17714# vss m1_5892_17518# vss nfet$2
Xnfet$2_48 m1_18824_17836# m1_20104_16080# m1_19637_18030# vss nfet$2
Xpfet_0 vdd m1_2590_19404# m1_2590_19404# m1_3458_19550# m1_n3534_17714# m1_n3534_17714#
+ pfet
Xpfet$14_30 vdd vdd vdd m1_17539_22402# m1_16322_21786# m1_16322_21786# pfet$14
Xpfet$1_6 vdd vdd m1_7198_15778# m1_7555_16080# pfet$1
Xpfet$27_6 vdd m1_n8848_25658# m1_n8055_24542# m1_n10796_25662# pfet$27
Xnfet$8_14 m1_21564_17714# vss m1_23486_19550# vss nfet$8
Xpfet$1_65 vdd m1_24904_15778# m1_24287_16080# m1_23007_17836# pfet$1
Xpfet$1_10 vdd m1_8172_15778# m1_7555_16080# m1_6275_17836# pfet$1
Xpfet$1_21 vdd vdd m1_965_15478# sd7 pfet$1
Xpfet$1_54 vdd vdd m1_n1278_18030# m1_n1168_15778# pfet$1
Xpfet$1_32 vdd vdd m1_2905_18030# m1_3015_15778# pfet$1
Xpfet$1_43 vdd vdd m1_11271_18030# m1_11381_15778# pfet$1
Xnfet$19_3 m1_n1134_25662# m1_n290_24224# m1_814_25658# vss nfet$19
Xnfet$23_10 m1_21590_21786# m1_21590_21786# vss vss m1_20428_21586# vss nfet$23
Xpfet$1_76 vdd m1_17851_17714# vdd m1_18926_16202# pfet$1
Xpfet$1_87 vdd vdd m1_18310_16080# m1_n7513_20152# pfet$1
Xpfet$1_98 vdd m1_20104_16080# m1_19637_18030# m1_18665_17343# pfet$1
Xnfet$31_2 m1_n8848_25658# m1_n8848_25658# vss vss m1_n8389_25502# vss nfet$31
Xpfet$18_2 vdd vdd m1_n1271_25858# m1_n10452_25858# pfet$18
Xnfet$24_1 m1_28490_22513# m1_28490_22513# vss vss m1_34329_21430# vss nfet$24
Xnfet$17_0 m1_n1133_21590# m1_n1133_21590# m1_354_22513# m1_354_22513# m1_n674_21586#
+ vss nfet$17
Xnfet$18_10 m1_21590_21786# vss m1_22222_21786# vss nfet$18
Xnfet$4_6 m1_27292_16202# m1_27292_16202# vss vss m1_26774_16398# vss nfet$4
Xpfet$30_1 vdd vdd m1_n6111_25858# m1_n6856_24542# pfet$30
Xnfet$2_3 m1_n7513_20152# vss m1_9944_16080# vss nfet$2
Xpfet$23_0 vdd m1_32818_20470# m1_32818_20470# m1_33050_19550# m1_30256_19792# m1_30256_19792#
+ pfet$23
Xnfet$15_22 m1_11760_25858# vss m1_11902_25662# vss nfet$15
Xnfet$15_33 m1_11760_25858# vss m1_14156_24542# vss nfet$15
Xnfet$15_11 m1_7522_21786# vss m1_11278_25858# vss nfet$15
Xnfet$15_77 m1_28010_25858# vss m1_28147_25662# vss nfet$15
Xnfet$15_55 m1_23827_25858# vss m1_23964_25662# vss nfet$15
Xnfet$15_44 m1_15822_23922# vss m1_16442_24224# vss nfet$15
Xnfet$15_66 m1_28010_25858# m1_30095_25658# m1_30888_24542# vss nfet$15
Xnfet$2_27 m1_1119_17714# vss m1_3989_15778# vss nfet$2
Xnfet$2_16 m1_6275_17836# m1_7198_15778# m1_6377_16202# vss nfet$2
Xnfet$2_38 m1_n2250_17343# m1_n1989_16202# m1_n2474_17518# vss nfet$2
Xnfet$2_49 m1_21564_17714# vss m1_18665_17343# vss nfet$2
Xpfet_1 vdd vdd vdd m1_2822_19850# m1_4620_20152# m1_4620_20152# pfet
Xpfet$8_0 vdd vdd m1_n5227_20152# m1_n2543_20130# pfet$8
Xpfet$14_31 vdd vdd vdd m1_27462_22102# m1_27003_21590# m1_27003_21590# pfet$14
Xpfet$14_20 vdd vdd vdd m1_20428_22102# m1_19969_21590# m1_19969_21590# pfet$14
Xpfet$1_7 vdd vdd m1_6275_17836# m1_6116_17343# pfet$1
Xnfet$8_15 m1_17697_15478# vss m1_22205_20152# vss nfet$8
Xnfet$19_4 m1_32193_25858# m1_34278_25658# m1_35071_24542# vss nfet$19
Xpfet$27_7 vdd m1_n3541_23922# m1_n4362_24346# m1_n4623_25487# pfet$27
Xpfet$1_66 vdd vdd m1_24904_15778# m1_22034_17714# pfet$1
Xpfet$1_77 vdd vdd m1_17851_17714# m1_18310_16080# pfet$1
Xpfet$1_11 vdd vdd m1_9485_17714# m1_9944_16080# pfet$1
Xpfet$1_22 vdd vdd m1_3015_15778# m1_3372_16080# pfet$1
Xpfet$1_55 vdd vdd m1_n2474_17518# m1_n3064_17714# pfet$1
Xpfet$1_44 vdd vdd m1_649_17714# m1_1119_17714# pfet$1
Xpfet$1_33 vdd vdd m1_5892_17518# m1_5302_17714# pfet$1
Xpfet$1_88 vdd vdd m1_18441_17518# m1_17851_17714# pfet$1
Xpfet$1_99 vdd m1_23109_16202# m1_22624_17518# m1_23007_17836# pfet$1
Xnfet$23_11 m1_22222_21786# m1_22222_21786# vss vss m1_21060_21586# vss nfet$23
Xnfet$31_3 m1_n9336_24346# m1_n9336_24346# vss vss m1_n9854_24542# vss nfet$31
Xpfet$18_3 vdd vdd m1_1607_24542# m1_n789_25858# pfet$18
Xnfet$24_2 m1_9645_21447# m1_9645_21447# vss vss m1_30492_21430# vss nfet$24
Xnfet$18_11 m1_18073_21786# vss m1_18705_21786# vss nfet$18
Xnfet$17_1 m1_n1263_21786# m1_n1263_21786# m1_354_22513# m1_354_22513# m1_n42_21586#
+ vss nfet$17
Xnfet$4_7 m1_26676_16080# m1_26676_16080# m1_26217_17714# m1_26217_17714# m1_26774_16398#
+ vss nfet$4
Xpfet$16_0 vdd m1_n647_25662# m1_n910_23922# m1_n1134_25662# pfet$16
Xpfet$23_1 vdd vdd vdd m1_33050_19550# m1_31535_19792# m1_31535_19792# pfet$23
Xnfet$2_4 m1_10299_17343# m1_10560_16202# m1_10075_17518# vss nfet$2
Xnfet$15_78 m1_28010_25858# m1_28634_25662# m1_28371_23922# vss nfet$15
Xnfet$15_56 m1_19781_25662# m1_20625_24224# m1_21729_25658# vss nfet$15
Xnfet$15_45 m1_15461_25858# m1_16085_25662# m1_15822_23922# vss nfet$15
Xnfet$15_23 m1_11278_25858# vss m1_11415_25662# vss nfet$15
Xnfet$15_67 m1_28492_25858# vss m1_30888_24542# vss nfet$15
Xnfet$15_34 m1_11278_25858# m1_13363_25658# m1_14156_24542# vss nfet$15
Xnfet$15_12 m1_7577_25858# vss m1_7522_21786# vss nfet$15
Xnfet$2_28 m1_1933_17343# vss m1_2092_17836# vss nfet$2
Xnfet$2_39 m1_n3064_17714# vss m1_n3534_17714# vss nfet$2
Xnfet$2_17 m1_649_17714# vss m1_n2250_17343# vss nfet$2
Xpfet_2 vdd m1_2590_19404# m1_2590_19404# m1_2822_19850# m1_2384_19550# m1_2384_19550#
+ pfet
Xpfet$8_1 vdd m1_n4485_20152# vdd m1_n3206_20274# pfet$8
Xpfet$14_32 vdd m1_28490_22513# m1_28490_22513# m1_28090_22402# m1_28624_21786# m1_28624_21786#
+ pfet$14
Xpfet$14_21 vdd vdd vdd m1_21056_22402# m1_19839_21786# m1_19839_21786# pfet$14
Xpfet$14_10 vdd m1_3871_22513# m1_3871_22513# m1_2843_22102# m1_4637_21786# m1_4637_21786#
+ pfet$14
Xpfet$1_8 vdd vdd m1_9331_15478# sd5 pfet$1
Xnfet$8_16 m1_17381_17714# vss m1_19969_19550# vss nfet$8
Xnfet$19_5 m1_32330_25662# m1_33174_24224# m1_34278_25658# vss nfet$19
Xpfet$1_67 vdd m1_22034_17714# vdd m1_23109_16202# pfet$1
Xpfet$1_78 vdd vdd m1_13514_15478# sd4 pfet$1
Xpfet$1_23 vdd m1_5302_17714# vdd m1_6377_16202# pfet$1
Xpfet$1_12 vdd m1_3989_15778# m1_3372_16080# m1_2092_17836# pfet$1
Xpfet$1_56 vdd m1_n1278_18030# vdd m1_n2605_16080# pfet$1
Xpfet$1_34 vdd vdd m1_5761_16080# m1_n7513_20152# pfet$1
Xpfet$1_45 vdd vdd m1_9944_16080# m1_n7513_20152# pfet$1
Xpfet$1_89 vdd vdd m1_22848_17343# m1_25747_17714# pfet$1
Xnfet$23_12 m1_18073_21786# m1_18073_21786# vss vss m1_16911_21586# vss nfet$23
Xpfet$18_4 vdd vdd m1_488_21786# m1_n789_25858# pfet$18
Xnfet$31_4 m1_n4978_24224# m1_n4978_24224# m1_n10452_25858# m1_n10452_25858# m1_n4880_24542#
+ vss nfet$31
Xnfet$24_3 m1_7388_22513# m1_7388_22513# m1_30256_22102# m1_30256_22102# m1_30492_21430#
+ vss nfet$24
Xnfet$18_12 m1_14556_21786# vss m1_15188_21786# vss nfet$18
Xnfet$17_2 m1_9288_21786# m1_9288_21786# m1_9645_21447# m1_9645_21447# m1_10509_21586#
+ vss nfet$17
Xnfet$22_0 pd1 vss m1_n1263_21786# vss nfet$22
Xpfet$16_1 vdd m1_n910_23922# m1_n646_24542# m1_n1271_25858# pfet$16
Xpfet$23_2 vdd m1_32818_21586# m1_32818_21586# m1_33050_22344# m1_30256_22102# m1_30256_22102#
+ pfet$23
Xnfet$2_5 m1_10458_17836# m1_11738_16080# m1_11271_18030# vss nfet$2
Xnfet$15_79 pd7 vss m1_19839_21786# vss nfet$15
Xnfet$15_57 m1_20126_25858# vss m1_20268_25662# vss nfet$15
Xnfet$15_24 m1_7095_25858# m1_7719_25662# m1_7456_23922# vss nfet$15
Xnfet$15_68 m1_n7513_20152# vss m1_29607_24346# vss nfet$15
Xnfet$15_46 m1_20126_25858# vss m1_18073_21786# vss nfet$15
Xnfet$15_35 m1_15598_25662# m1_15822_23922# m1_16086_24542# vss nfet$15
Xnfet$15_13 m1_11415_25662# m1_11639_23922# m1_11903_24542# vss nfet$15
Xnfet$2_29 m1_3372_16080# vss m1_3015_15778# vss nfet$2
Xnfet$2_18 m1_1119_17714# vss m1_649_17714# vss nfet$2
Xpfet_3 vdd vdd vdd m1_3458_19550# m1_n3218_15478# m1_n3218_15478# pfet
Xpfet$8_2 vdd m1_n5227_20152# vdd m1_n1927_20274# pfet$8
Xpfet$14_33 vdd m1_28490_22513# m1_28490_22513# m1_27462_22102# m1_29256_21786# m1_29256_21786#
+ pfet$14
Xpfet$14_22 vdd m1_21456_22513# m1_21456_22513# m1_20428_22102# m1_22222_21786# m1_22222_21786#
+ pfet$14
Xpfet$14_11 vdd vdd vdd m1_2843_22102# m1_2384_21590# m1_2384_21590# pfet$14
Xpfet$1_9 vdd vdd m1_8172_15778# m1_5302_17714# pfet$1
Xnfet$19_6 m1_32193_25858# m1_32817_25662# m1_32554_23922# vss nfet$19
Xnfet$8_17 m1_21880_15478# vss m1_25722_20152# vss nfet$8
Xpfet$1_68 vdd vdd m1_22034_17714# m1_22493_16080# pfet$1
Xpfet$1_79 vdd m1_15564_15778# m1_14743_16202# m1_14482_17343# pfet$1
Xpfet$1_13 vdd vdd m1_5148_15478# sd6 pfet$1
Xpfet$1_57 vdd m1_n1989_16202# m1_n2474_17518# m1_n2091_17836# pfet$1
Xpfet$1_46 vdd vdd m1_n2250_17343# m1_649_17714# pfet$1
Xpfet$1_24 vdd m1_6377_16202# m1_5892_17518# m1_6275_17836# pfet$1
Xpfet$1_35 vdd vdd m1_9015_17714# m1_9485_17714# pfet$1
Xnfet$23_13 m1_18705_21786# m1_18705_21786# vss vss m1_17543_21586# vss nfet$23
Xnfet$31_5 m1_n4362_24346# m1_n4362_24346# vss vss m1_n4880_24542# vss nfet$31
Xpfet$18_5 vdd vdd m1_326_24346# m1_n7513_20152# pfet$18
Xnfet$18_13 m1_16322_21786# vss m1_16452_21590# vss nfet$18
Xnfet$17_3 m1_9418_21590# m1_9418_21590# m1_9645_21447# m1_9645_21447# m1_9877_21586#
+ vss nfet$17
Xnfet$22_1 pd2 vss m1_2254_21786# vss nfet$22
Xpfet$16_2 vdd m1_n290_24224# m1_814_25658# m1_n1271_25858# pfet$16
Xnfet$15_0 m1_3394_25858# vss m1_5790_24542# vss nfet$15
Xnfet$2_6 m1_6116_17343# vss m1_6275_17836# vss nfet$2
Xnfet$15_58 m1_20005_23922# vss m1_20625_24224# vss nfet$15
Xnfet$15_25 m1_7232_25662# m1_8076_24224# m1_9180_25658# vss nfet$15
Xnfet$15_69 m1_24309_25858# vss m1_26705_24542# vss nfet$15
Xnfet$15_47 m1_23964_25662# m1_24188_23922# m1_24452_24542# vss nfet$15
Xnfet$15_36 m1_11760_25858# vss m1_11039_21786# vss nfet$15
Xnfet$15_14 m1_n7513_20152# vss m1_8692_24346# vss nfet$15
Xpfet$21_0 vdd m1_31535_19792# vdd m1_17939_22513# pfet$21
Xnfet$2_19 m1_n7513_20152# vss m1_1578_16080# vss nfet$2
Xpfet_4 vdd m1_6107_19404# m1_6107_19404# m1_6339_19850# m1_5901_19550# m1_5901_19550#
+ pfet
Xpfet$8_3 vdd m1_n6839_20152# vdd m1_n927_19404# pfet$8
Xpfet$14_34 vdd vdd vdd m1_28090_22402# m1_26873_21786# m1_26873_21786# pfet$14
Xpfet$14_23 vdd vdd vdd m1_23945_22102# m1_23486_21590# m1_23486_21590# pfet$14
Xpfet$14_12 vdd vdd vdd m1_3471_22402# m1_2254_21786# m1_2254_21786# pfet$14
Xpfet$6_0 vdd vdd m1_2384_19550# m1_n3534_17714# pfet$6
Xnfet$19_7 m1_32330_25662# m1_32554_23922# m1_32818_24542# vss nfet$19
Xpfet$1_69 vdd vdd m1_20721_15778# m1_17851_17714# pfet$1
Xpfet$1_14 vdd vdd m1_2092_17836# m1_1933_17343# pfet$1
Xpfet$1_58 vdd vdd m1_n3534_17714# m1_n3064_17714# pfet$1
Xpfet$1_25 vdd vdd m1_1709_17518# m1_1119_17714# pfet$1
Xpfet$1_36 vdd vdd m1_6116_17343# m1_9015_17714# pfet$1
Xpfet$1_47 vdd m1_11738_16080# m1_11271_18030# m1_10299_17343# pfet$1
Xnfet$23_14 m1_15188_21786# m1_15188_21786# vss vss m1_14026_21586# vss nfet$23
Xpfet$18_6 vdd vdd m1_n290_24224# m1_n910_23922# pfet$18
Xnfet$31_6 m1_n4978_24224# m1_n4978_24224# vss vss m1_n3415_25502# vss nfet$31
Xnfet$17_4 m1_5901_21590# m1_5901_21590# m1_7388_22513# m1_7388_22513# m1_6360_21586#
+ vss nfet$17
Xnfet$18_14 m1_19839_21786# vss m1_19969_21590# vss nfet$18
Xnfet$9_0 m1_n3822_20130# m1_n3822_20130# m1_n4485_20152# m1_n4485_20152# m1_n3724_20470#
+ vss nfet$9
Xnfet$22_2 pd9 vss m1_26873_21786# vss nfet$22
Xnfet$15_1 m1_2912_25858# m1_4997_25658# m1_5790_24542# vss nfet$15
Xpfet$16_3 vdd m1_814_25658# m1_1607_24542# m1_n1134_25662# pfet$16
Xnfet$2_7 m1_9485_17714# vss m1_10075_17518# vss nfet$2
Xnfet$15_59 m1_19644_25858# m1_20268_25662# m1_20005_23922# vss nfet$15
Xnfet$15_48 m1_18073_21786# vss m1_23827_25858# vss nfet$15
Xnfet$15_37 m1_11039_21786# vss m1_15461_25858# vss nfet$15
Xnfet$15_26 m1_7095_25858# m1_9180_25658# m1_9973_24542# vss nfet$15
Xnfet$15_15 m1_7232_25662# m1_7456_23922# m1_7720_24542# vss nfet$15
Xpfet$14_0 vdd vdd vdd m1_n674_22102# m1_n1133_21590# m1_n1133_21590# pfet$14
Xpfet$21_1 vdd vdd m1_30256_19792# m1_21456_22513# pfet$21
Xpfet_5 vdd vdd vdd m1_n695_19850# m1_1103_20152# m1_1103_20152# pfet
Xpfet$8_4 vdd vdd m1_n6839_20152# m1_n6973_21481# pfet$8
Xpfet$14_24 vdd m1_17939_22513# m1_17939_22513# m1_16911_22102# m1_18705_21786# m1_18705_21786#
+ pfet$14
Xpfet$14_35 vdd vdd vdd m1_13394_22102# m1_12935_21590# m1_12935_21590# pfet$14
Xpfet$14_13 vdd vdd vdd m1_6988_22402# m1_5771_21786# m1_5771_21786# pfet$14
Xpfet$6_1 vdd vdd m1_4620_20152# m1_n3218_15478# pfet$6
Xpfet_30 vdd vdd vdd m1_24560_19550# m1_21880_15478# m1_21880_15478# pfet
Xpfet$1_15 vdd vdd m1_5302_17714# m1_5761_16080# pfet$1
Xpfet$1_48 vdd vdd m1_n3064_17714# m1_n2605_16080# pfet$1
Xpfet$1_59 vdd vdd m1_n2605_16080# m1_n7513_20152# pfet$1
Xpfet$1_26 vdd vdd m1_4832_17714# m1_5302_17714# pfet$1
Xpfet$1_37 vdd m1_7555_16080# m1_7088_18030# m1_6116_17343# pfet$1
Xnfet$23_15 m1_14556_21786# m1_14556_21786# vss vss m1_13394_21586# vss nfet$23
Xpfet$18_7 vdd vdd m1_32330_25662# m1_32193_25858# pfet$18
Xnfet$31_7 m1_n3541_23922# m1_n3541_23922# m1_n3651_26174# m1_n3651_26174# m1_n3415_25502#
+ vss nfet$31
Xnfet$17_5 m1_2254_21786# m1_2254_21786# m1_3871_22513# m1_3871_22513# m1_3475_21586#
+ vss nfet$17
Xnfet$18_15 m1_28624_21786# vss m1_29256_21786# vss nfet$18
Xnfet$9_1 m1_n1927_20274# m1_n1927_20274# vss vss m1_n2445_20470# vss nfet$9
Xpfet$16_4 vdd m1_33174_24224# m1_34278_25658# m1_32193_25858# pfet$16
Xnfet$15_2 m1_n7513_20152# vss m1_4509_24346# vss nfet$15
Xnfet$2_8 m1_7555_16080# vss m1_7198_15778# vss nfet$2
Xnfet$15_27 m1_7577_25858# vss m1_7719_25662# vss nfet$15
Xnfet$15_49 m1_19781_25662# m1_20005_23922# m1_20269_24542# vss nfet$15
Xnfet$15_38 m1_n7513_20152# vss m1_12875_24346# vss nfet$15
Xnfet$15_16 m1_4005_21786# vss m1_7095_25858# vss nfet$15
Xpfet$14_1 vdd m1_7388_22513# m1_7388_22513# m1_6988_22402# m1_7522_21786# m1_7522_21786#
+ pfet$14
Xpfet$21_2 vdd m1_30256_19792# vdd m1_24973_22513# pfet$21
Xnfet$20_0 m1_n290_24224# m1_n290_24224# m1_n646_24542# m1_n646_24542# m1_n192_24542#
+ vss nfet$20
Xpfet_6 vdd vdd vdd m1_6339_19850# m1_8137_20152# m1_8137_20152# pfet
Xpfet$14_25 vdd m1_17939_22513# m1_17939_22513# m1_17539_22402# m1_18073_21786# m1_18073_21786#
+ pfet$14
Xpfet$14_14 vdd vdd vdd m1_n46_22402# m1_n1263_21786# m1_n1263_21786# pfet$14
Xpfet$6_2 vdd vdd m1_1103_20152# m1_n7401_15478# pfet$6
Xpfet_20 vdd m1_n3822_21786# m1_n3822_21786# m1_14009_19550# m1_9015_17714# m1_9015_17714#
+ pfet
Xpfet_31 vdd m1_n2543_20130# m1_n2543_20130# m1_20407_19850# m1_19969_19550# m1_19969_19550#
+ pfet
Xpfet$1_16 vdd vdd m1_3989_15778# m1_1119_17714# pfet$1
Xpfet$1_49 vdd m1_n194_15778# m1_n811_16080# m1_n2091_17836# pfet$1
Xpfet$1_27 vdd m1_2194_16202# m1_1709_17518# m1_2092_17836# pfet$1
Xpfet$1_38 vdd vdd m1_7088_18030# m1_7198_15778# pfet$1
Xnfet$23_16 m1_28624_21786# m1_28624_21786# vss vss m1_27462_21586# vss nfet$23
Xpfet$18_8 vdd vdd m1_33174_24224# m1_32554_23922# pfet$18
Xnfet$17_6 m1_2384_21590# m1_2384_21590# m1_3871_22513# m1_3871_22513# m1_2843_21586#
+ vss nfet$17
Xnfet$18_16 m1_26873_21786# vss m1_27003_21590# vss nfet$18
Xnfet$9_2 m1_n3206_20274# m1_n3206_20274# vss vss m1_n3724_20470# vss nfet$9
Xpfet$16_5 vdd m1_32817_25662# m1_32554_23922# m1_32330_25662# pfet$16
Xnfet$15_3 m1_488_21786# vss m1_2912_25858# vss nfet$15
Xnfet$2_9 sd5 vss m1_9331_15478# vss nfet$2
Xnfet$15_39 pd4 vss m1_9288_21786# vss nfet$15
Xnfet$15_17 m1_11639_23922# vss m1_12259_24224# vss nfet$15
Xnfet$20_1 m1_814_25658# m1_814_25658# vss vss m1_1273_25502# vss nfet$20
Xnfet$15_28 m1_3394_25858# vss m1_4005_21786# vss nfet$15
Xpfet$14_2 vdd m1_7388_22513# m1_7388_22513# m1_6360_22102# m1_8154_21786# m1_8154_21786#