* NGSPICE file created from VCOfinal.ext - technology: gf180mcuD

.subckt nfet$19$1 a_30_260# a_n84_0# a_94_0# VSUBS
X0 a_94_0# a_30_260# a_n84_0# VSUBS nfet_03v3 ad=0.61p pd=3.22u as=0.61p ps=3.22u w=1u l=0.28u
.ends

.subckt nfet$17 a_254_0# a_n84_0# a_94_0# a_190_460# a_30_460# VSUBS
X0 a_254_0# a_190_460# a_94_0# VSUBS nfet_03v3 ad=1.22p pd=5.22u as=0.52p ps=2.52u w=2u l=0.28u
X1 a_94_0# a_30_460# a_n84_0# VSUBS nfet_03v3 ad=0.52p pd=2.52u as=1.22p ps=5.22u w=2u l=0.28u
.ends

.subckt pfet$14 a_254_0# a_348_560# w_n180_n88# a_414_0# a_n92_0# a_94_0# a_574_0#
+ a_508_560# a_188_560# a_28_560#
X0 a_254_0# a_188_560# a_94_0# w_n180_n88# pfet_03v3 ad=0.65p pd=3.02u as=0.65p ps=3.02u w=2.5u l=0.28u
X1 a_574_0# a_508_560# a_414_0# w_n180_n88# pfet_03v3 ad=1.625p pd=6.3u as=0.65p ps=3.02u w=2.5u l=0.28u
X2 a_94_0# a_28_560# a_n92_0# w_n180_n88# pfet_03v3 ad=0.65p pd=3.02u as=1.625p ps=6.3u w=2.5u l=0.28u
X3 a_414_0# a_348_560# a_254_0# w_n180_n88# pfet_03v3 ad=0.65p pd=3.02u as=0.65p ps=3.02u w=2.5u l=0.28u
.ends

.subckt nfet$15 a_1054_0# a_734_0# a_510_n132# a_254_0# a_894_0# a_670_n132# a_1214_0#
+ a_830_n132# a_414_0# a_30_n132# a_n84_0# a_94_0# a_190_n132# a_574_0# a_990_n132#
+ a_350_n132# a_1150_n132# VSUBS
X0 a_734_0# a_670_n132# a_574_0# VSUBS nfet_03v3 ad=0.52p pd=2.52u as=0.52p ps=2.52u w=2u l=0.28u
X1 a_254_0# a_190_n132# a_94_0# VSUBS nfet_03v3 ad=0.52p pd=2.52u as=0.52p ps=2.52u w=2u l=0.28u
X2 a_574_0# a_510_n132# a_414_0# VSUBS nfet_03v3 ad=0.52p pd=2.52u as=0.52p ps=2.52u w=2u l=0.28u
X3 a_1054_0# a_990_n132# a_894_0# VSUBS nfet_03v3 ad=0.52p pd=2.52u as=0.52p ps=2.52u w=2u l=0.28u
X4 a_894_0# a_830_n132# a_734_0# VSUBS nfet_03v3 ad=0.52p pd=2.52u as=0.52p ps=2.52u w=2u l=0.28u
X5 a_94_0# a_30_n132# a_n84_0# VSUBS nfet_03v3 ad=0.52p pd=2.52u as=1.22p ps=5.22u w=2u l=0.28u
X6 a_414_0# a_350_n132# a_254_0# VSUBS nfet_03v3 ad=0.52p pd=2.52u as=0.52p ps=2.52u w=2u l=0.28u
X7 a_1214_0# a_1150_n132# a_1054_0# VSUBS nfet_03v3 ad=1.22p pd=5.22u as=0.52p ps=2.52u w=2u l=0.28u
.ends

.subckt nfet$16 a_510_n132# a_254_0# a_414_0# a_30_n132# a_n84_0# a_94_0# a_190_n132#
+ a_574_0# a_350_n132# VSUBS
X0 a_254_0# a_190_n132# a_94_0# VSUBS nfet_03v3 ad=0.52p pd=2.52u as=0.52p ps=2.52u w=2u l=0.28u
X1 a_574_0# a_510_n132# a_414_0# VSUBS nfet_03v3 ad=1.22p pd=5.22u as=0.52p ps=2.52u w=2u l=0.28u
X2 a_94_0# a_30_n132# a_n84_0# VSUBS nfet_03v3 ad=0.52p pd=2.52u as=1.22p ps=5.22u w=2u l=0.28u
X3 a_414_0# a_350_n132# a_254_0# VSUBS nfet_03v3 ad=0.52p pd=2.52u as=0.52p ps=2.52u w=2u l=0.28u
.ends

.subckt pfet$15 a_28_n136# w_n180_n88# a_n92_0# a_94_0#
X0 a_94_0# a_28_n136# a_n92_0# w_n180_n88# pfet_03v3 ad=1.625p pd=6.3u as=1.625p ps=6.3u w=2.5u l=0.28u
.ends

.subckt pfet$13 a_1054_0# a_734_0# a_254_0# a_894_0# a_348_560# a_828_560# a_988_560#
+ w_n180_n88# a_1214_0# a_414_0# a_n92_0# a_94_0# a_574_0# a_508_560# a_188_560# a_668_560#
+ a_1148_560# a_28_560#
X0 a_1214_0# a_1148_560# a_1054_0# w_n180_n88# pfet_03v3 ad=1.625p pd=6.3u as=0.65p ps=3.02u w=2.5u l=0.28u
X1 a_734_0# a_668_560# a_574_0# w_n180_n88# pfet_03v3 ad=0.65p pd=3.02u as=0.65p ps=3.02u w=2.5u l=0.28u
X2 a_254_0# a_188_560# a_94_0# w_n180_n88# pfet_03v3 ad=0.65p pd=3.02u as=0.65p ps=3.02u w=2.5u l=0.28u
X3 a_574_0# a_508_560# a_414_0# w_n180_n88# pfet_03v3 ad=0.65p pd=3.02u as=0.65p ps=3.02u w=2.5u l=0.28u
X4 a_1054_0# a_988_560# a_894_0# w_n180_n88# pfet_03v3 ad=0.65p pd=3.02u as=0.65p ps=3.02u w=2.5u l=0.28u
X5 a_894_0# a_828_560# a_734_0# w_n180_n88# pfet_03v3 ad=0.65p pd=3.02u as=0.65p ps=3.02u w=2.5u l=0.28u
X6 a_94_0# a_28_560# a_n92_0# w_n180_n88# pfet_03v3 ad=0.65p pd=3.02u as=1.625p ps=6.3u w=2.5u l=0.28u
X7 a_414_0# a_348_560# a_254_0# w_n180_n88# pfet_03v3 ad=0.65p pd=3.02u as=0.65p ps=3.02u w=2.5u l=0.28u
.ends

.subckt Pcomparator vss vdd iref inn inp out
Xnfet$17_0 vss vss m1_3615_n1223# m1_3615_n1223# m1_3615_n1223# vss nfet$17
Xnfet$17_1 vss vss m1_5539_n2811# m1_3615_n1223# m1_3615_n1223# vss nfet$17
Xpfet$14_10 vdd iref vdd iref vdd iref vdd iref iref iref pfet$14
Xnfet$17_2 vss vss m1_5539_n2811# m1_3615_n1223# m1_3615_n1223# vss nfet$17
Xnfet$15_0 out out m1_5539_n2811# vss vss m1_5539_n2811# vss m1_5539_n2811# out m1_5539_n2811#
+ vss out m1_5539_n2811# vss m1_5539_n2811# m1_5539_n2811# m1_5539_n2811# vss nfet$15
Xpfet$14_11 vdd iref vdd m1_2779_n1752# vdd m1_2779_n1752# vdd iref iref iref pfet$14
Xnfet$17_3 vss vss m1_3615_n1223# m1_3615_n1223# m1_3615_n1223# vss nfet$17
Xpfet$14_13 m1_2779_n1752# inp vdd m1_5539_n2811# m1_2779_n1752# m1_5539_n2811# m1_2779_n1752#
+ inp inp inp pfet$14
Xpfet$14_12 m1_2779_n1752# inn vdd m1_3615_n1223# m1_2779_n1752# m1_3615_n1223# m1_2779_n1752#
+ inn inn inn pfet$14
Xpfet$14_0 m1_2779_n1752# inp vdd m1_5539_n2811# m1_2779_n1752# m1_5539_n2811# m1_2779_n1752#
+ inp inp inp pfet$14
Xpfet$14_1 m1_2779_n1752# m1_2779_n1752# vdd m1_2779_n1752# m1_2779_n1752# m1_2779_n1752#
+ m1_2779_n1752# m1_2779_n1752# m1_2779_n1752# m1_2779_n1752# pfet$14
Xpfet$14_2 m1_2779_n1752# inn vdd m1_3615_n1223# m1_2779_n1752# m1_3615_n1223# m1_2779_n1752#
+ inn inn inn pfet$14
Xpfet$14_3 m1_2779_n1752# m1_2779_n1752# vdd m1_2779_n1752# m1_2779_n1752# m1_2779_n1752#
+ m1_2779_n1752# m1_2779_n1752# m1_2779_n1752# m1_2779_n1752# pfet$14
Xpfet$14_4 vdd iref vdd m1_2779_n1752# vdd m1_2779_n1752# vdd iref iref iref pfet$14
Xpfet$14_5 vdd iref vdd m1_2779_n1752# vdd m1_2779_n1752# vdd iref iref iref pfet$14
Xpfet$14_7 vdd iref vdd iref vdd iref vdd iref iref iref pfet$14
Xpfet$14_6 vdd iref vdd iref vdd iref vdd iref iref iref pfet$14
Xpfet$14_8 vdd iref vdd iref vdd iref vdd iref iref iref pfet$14
Xpfet$14_9 vdd iref vdd m1_2779_n1752# vdd m1_2779_n1752# vdd iref iref iref pfet$14
Xnfet$16_0 vss vss vss vss vss vss vss vss vss vss nfet$16
Xpfet$15_0 vdd vdd vdd vdd pfet$15
Xnfet$16_1 vss vss vss vss vss vss vss vss vss vss nfet$16
Xpfet$15_1 vdd vdd vdd vdd pfet$15
Xpfet$15_3 vdd vdd vdd vdd pfet$15
Xpfet$15_2 vdd vdd vdd vdd pfet$15
Xpfet$13_0 out out vdd vdd iref iref iref vdd vdd out vdd out vdd iref iref iref iref
+ iref pfet$13
Xpfet$13_1 out out vdd vdd iref iref iref vdd vdd out vdd out vdd iref iref iref iref
+ iref pfet$13
.ends

.subckt nfet$13 a_254_0# a_350_460# a_414_0# a_n84_0# a_94_0# a_510_460# a_190_460#
+ a_574_0# a_30_460# VSUBS
X0 a_254_0# a_190_460# a_94_0# VSUBS nfet_03v3 ad=0.52p pd=2.52u as=0.52p ps=2.52u w=2u l=0.28u
X1 a_574_0# a_510_460# a_414_0# VSUBS nfet_03v3 ad=1.22p pd=5.22u as=0.52p ps=2.52u w=2u l=0.28u
X2 a_94_0# a_30_460# a_n84_0# VSUBS nfet_03v3 ad=0.52p pd=2.52u as=1.22p ps=5.22u w=2u l=0.28u
X3 a_414_0# a_350_460# a_254_0# VSUBS nfet_03v3 ad=0.52p pd=2.52u as=0.52p ps=2.52u w=2u l=0.28u
.ends

.subckt pfet$12 a_254_0# a_348_560# w_n180_n88# a_414_0# a_n92_0# a_94_0# a_574_0#
+ a_508_560# a_188_560# a_28_560#
X0 a_254_0# a_188_560# a_94_0# w_n180_n88# pfet_03v3 ad=0.65p pd=3.02u as=0.65p ps=3.02u w=2.5u l=0.28u
X1 a_574_0# a_508_560# a_414_0# w_n180_n88# pfet_03v3 ad=1.625p pd=6.3u as=0.65p ps=3.02u w=2.5u l=0.28u
X2 a_94_0# a_28_560# a_n92_0# w_n180_n88# pfet_03v3 ad=0.65p pd=3.02u as=1.625p ps=6.3u w=2.5u l=0.28u
X3 a_414_0# a_348_560# a_254_0# w_n180_n88# pfet_03v3 ad=0.65p pd=3.02u as=0.65p ps=3.02u w=2.5u l=0.28u
.ends

.subckt nfet$11 a_254_0# a_n84_0# a_94_0# a_190_460# a_30_460# VSUBS
X0 a_254_0# a_190_460# a_94_0# VSUBS nfet_03v3 ad=1.22p pd=5.22u as=0.52p ps=2.52u w=2u l=0.28u
X1 a_94_0# a_30_460# a_n84_0# VSUBS nfet_03v3 ad=0.52p pd=2.52u as=1.22p ps=5.22u w=2u l=0.28u
.ends

.subckt pfet$10 a_28_n136# a_254_0# a_188_n136# w_n180_n88# a_348_n136# a_414_0# a_n92_0#
+ a_94_0# a_574_0# a_508_n136#
X0 a_254_0# a_188_n136# a_94_0# w_n180_n88# pfet_03v3 ad=0.65p pd=3.02u as=0.65p ps=3.02u w=2.5u l=0.28u
X1 a_574_0# a_508_n136# a_414_0# w_n180_n88# pfet_03v3 ad=1.625p pd=6.3u as=0.65p ps=3.02u w=2.5u l=0.28u
X2 a_94_0# a_28_n136# a_n92_0# w_n180_n88# pfet_03v3 ad=0.65p pd=3.02u as=1.625p ps=6.3u w=2.5u l=0.28u
X3 a_414_0# a_348_n136# a_254_0# w_n180_n88# pfet_03v3 ad=0.65p pd=3.02u as=0.65p ps=3.02u w=2.5u l=0.28u
.ends

.subckt nfet$14 a_n84_0# a_94_0# a_30_460# VSUBS
X0 a_94_0# a_30_460# a_n84_0# VSUBS nfet_03v3 ad=1.22p pd=5.22u as=1.22p ps=5.22u w=2u l=0.28u
.ends

.subckt nfet$12 a_1054_0# a_734_0# a_254_0# a_350_460# a_830_460# a_894_0# a_990_460#
+ a_1214_0# a_414_0# a_n84_0# a_94_0# a_510_460# a_190_460# a_574_0# a_670_460# a_1150_460#
+ a_30_460# VSUBS
X0 a_734_0# a_670_460# a_574_0# VSUBS nfet_03v3 ad=0.52p pd=2.52u as=0.52p ps=2.52u w=2u l=0.28u
X1 a_254_0# a_190_460# a_94_0# VSUBS nfet_03v3 ad=0.52p pd=2.52u as=0.52p ps=2.52u w=2u l=0.28u
X2 a_574_0# a_510_460# a_414_0# VSUBS nfet_03v3 ad=0.52p pd=2.52u as=0.52p ps=2.52u w=2u l=0.28u
X3 a_1054_0# a_990_460# a_894_0# VSUBS nfet_03v3 ad=0.52p pd=2.52u as=0.52p ps=2.52u w=2u l=0.28u
X4 a_894_0# a_830_460# a_734_0# VSUBS nfet_03v3 ad=0.52p pd=2.52u as=0.52p ps=2.52u w=2u l=0.28u
X5 a_94_0# a_30_460# a_n84_0# VSUBS nfet_03v3 ad=0.52p pd=2.52u as=1.22p ps=5.22u w=2u l=0.28u
X6 a_414_0# a_350_460# a_254_0# VSUBS nfet_03v3 ad=0.52p pd=2.52u as=0.52p ps=2.52u w=2u l=0.28u
X7 a_1214_0# a_1150_460# a_1054_0# VSUBS nfet_03v3 ad=1.22p pd=5.22u as=0.52p ps=2.52u w=2u l=0.28u
.ends

.subckt pfet$11 a_28_n136# a_254_0# a_188_n136# w_n180_n88# a_n92_0# a_94_0#
X0 a_254_0# a_188_n136# a_94_0# w_n180_n88# pfet_03v3 ad=1.625p pd=6.3u as=0.65p ps=3.02u w=2.5u l=0.28u
X1 a_94_0# a_28_n136# a_n92_0# w_n180_n88# pfet_03v3 ad=0.65p pd=3.02u as=1.625p ps=6.3u w=2.5u l=0.28u
.ends

.subckt Ncomparator iref vss vdd inn inp out
Xnfet$13_0 vss iref m1_506_n191# vss m1_506_n191# iref iref vss iref vss nfet$13
Xpfet$12_0 vdd m1_570_1653# vdd out vdd out vdd m1_570_1653# m1_570_1653# m1_570_1653#
+ pfet$12
Xnfet$13_1 vss iref iref vss iref iref iref vss iref vss nfet$13
Xpfet$12_1 vdd m1_570_1653# vdd out vdd out vdd m1_570_1653# m1_570_1653# m1_570_1653#
+ pfet$12
Xnfet$13_2 m1_506_n191# m1_506_n191# m1_506_n191# m1_506_n191# m1_506_n191# m1_506_n191#
+ m1_506_n191# m1_506_n191# m1_506_n191# vss nfet$13
Xpfet$12_2 vdd m1_570_1653# vdd out vdd out vdd m1_570_1653# m1_570_1653# m1_570_1653#
+ pfet$12
Xnfet$13_3 m1_506_n191# m1_506_n191# m1_506_n191# m1_506_n191# m1_506_n191# m1_506_n191#
+ m1_506_n191# m1_506_n191# m1_506_n191# vss nfet$13
Xnfet$11_0 m1_506_n191# m1_506_n191# m1_570_1653# inp inp vss nfet$11
Xpfet$10_0 m1_1242_549# vdd m1_1242_549# vdd m1_1242_549# m1_570_1653# vdd m1_570_1653#
+ vdd m1_1242_549# pfet$10
Xpfet$12_3 vdd m1_570_1653# vdd out vdd out vdd m1_570_1653# m1_570_1653# m1_570_1653#
+ pfet$12
Xnfet$13_5 vss iref m1_506_n191# vss m1_506_n191# iref iref vss iref vss nfet$13
Xnfet$13_4 vss iref iref vss iref iref iref vss iref vss nfet$13
Xnfet$11_1 m1_506_n191# m1_506_n191# m1_1242_549# inn inn vss nfet$11
Xpfet$10_1 m1_1242_549# vdd m1_1242_549# vdd m1_1242_549# m1_1242_549# vdd m1_1242_549#
+ vdd m1_1242_549# pfet$10
Xnfet$11_2 m1_506_n191# m1_506_n191# m1_570_1653# inp inp vss nfet$11
Xpfet$10_2 m1_1242_549# vdd m1_1242_549# vdd m1_1242_549# m1_570_1653# vdd m1_570_1653#
+ vdd m1_1242_549# pfet$10
Xnfet$11_3 m1_506_n191# m1_506_n191# m1_1242_549# inn inn vss nfet$11
Xpfet$10_3 m1_1242_549# vdd m1_1242_549# vdd m1_1242_549# m1_1242_549# vdd m1_1242_549#
+ vdd m1_1242_549# pfet$10
Xnfet$14_1 vss vss vss vss nfet$14
Xnfet$14_0 vss vss vss vss nfet$14
Xnfet$12_0 out out vss iref iref vss iref vss out vss out iref iref vss iref iref
+ iref vss nfet$12
Xpfet$11_0 vdd vdd vdd vdd vdd vdd pfet$11
Xpfet$11_1 vdd vdd vdd vdd vdd vdd pfet$11
Xpfet$11_2 vdd vdd vdd vdd vdd vdd pfet$11
Xpfet$11_3 vdd vdd vdd vdd vdd vdd pfet$11
.ends

.subckt pfet$8$1 a_28_n136# w_n180_n88# a_n92_0# a_94_0#
X0 a_94_0# a_28_n136# a_n92_0# w_n180_n88# pfet_03v3 ad=1.3p pd=5.3u as=1.3p ps=5.3u w=2u l=0.28u
.ends

.subckt nfet$9$1 a_n84_0# a_94_0# a_30_160# VSUBS
X0 a_94_0# a_30_160# a_n84_0# VSUBS nfet_03v3 ad=0.305p pd=2.22u as=0.305p ps=2.22u w=0.5u l=0.28u
.ends

.subckt SRLATCH vdd vss q qb s r
Xpfet$8$1_0 r vdd m1_818_875# qb pfet$8$1
Xpfet$8$1_1 q vdd vdd m1_818_875# pfet$8$1
Xpfet$8$1_2 s vdd m1_50_875# vdd pfet$8$1
Xpfet$8$1_3 qb vdd q m1_50_875# pfet$8$1
Xnfet$9$1_0 vss qb r vss nfet$9$1
Xnfet$9$1_1 vss qb q vss nfet$9$1
Xnfet$9$1_3 q vss qb vss nfet$9$1
Xnfet$9$1_2 q vss s vss nfet$9$1
.ends

.subckt cap_mim$2 m4_n120_n120# m4_0_0#
X0 m4_0_0# m4_n120_n120# cap_mim_2f0_m4m5_noshield c_width=60u c_length=100u
.ends

.subckt ppolyf_u_resistor$2 a_n376_0# a_4200_0# a_n132_0#
X0 a_n132_0# a_4200_0# a_n376_0# ppolyf_u r_width=1u r_length=21u
.ends

.subckt pfet$19 a_28_n136# w_n180_n88# a_n92_0# a_94_0#
X0 a_94_0# a_28_n136# a_n92_0# w_n180_n88# pfet_03v3 ad=1.3p pd=5.3u as=1.3p ps=5.3u w=2u l=0.28u
.ends

.subckt pfet$16 a_28_n136# w_n180_n88# a_n92_0# a_94_0#
X0 a_94_0# a_28_n136# a_n92_0# w_n180_n88# pfet_03v3 ad=2.6p pd=9.3u as=2.6p ps=9.3u w=4u l=0.28u
.ends

.subckt nfet$18 a_n84_0# a_94_0# a_30_460# VSUBS
X0 a_94_0# a_30_460# a_n84_0# VSUBS nfet_03v3 ad=1.22p pd=5.22u as=1.22p ps=5.22u w=2u l=0.28u
.ends

.subckt pfet$17 a_28_460# w_n180_n88# a_n92_0# a_94_0#
X0 a_94_0# a_28_460# a_n92_0# w_n180_n88# pfet_03v3 ad=1.3p pd=5.3u as=1.3p ps=5.3u w=2u l=0.28u
.ends

.subckt nfet$19 a_30_n132# a_n84_0# a_94_0# VSUBS
X0 a_94_0# a_30_n132# a_n84_0# VSUBS nfet_03v3 ad=1.22p pd=5.22u as=1.22p ps=5.22u w=2u l=0.28u
.ends

.subckt SCHMITT VDD VSS IN OUT
Xpfet$16_0 IN VDD m1_596_1544# OUT pfet$16
Xpfet$16_1 IN VDD VDD m1_596_1544# pfet$16
Xnfet$18_0 m1_592_402# OUT IN VSS nfet$18
Xpfet$17_0 OUT VDD m1_596_1544# VSS pfet$17
Xnfet$18_1 VSS m1_592_402# IN VSS nfet$18
Xnfet$19_0 OUT m1_592_402# VDD VSS nfet$19
.ends

.subckt nfet$4 a_30_n132# a_n84_0# a_94_0# VSUBS
X0 a_94_0# a_30_n132# a_n84_0# VSUBS nfet_03v3 ad=1.22p pd=5.22u as=1.22p ps=5.22u w=2u l=0.28u
.ends

.subckt nfet$5 a_750_0# a_546_0# a_446_n132# a_n84_0# a_650_n132# a_38_n132# a_342_0#
+ a_138_0# a_242_n132# VSUBS
X0 a_342_0# a_242_n132# a_138_0# VSUBS nfet_03v3 ad=0.52p pd=2.52u as=0.52p ps=2.52u w=2u l=0.5u
X1 a_546_0# a_446_n132# a_342_0# VSUBS nfet_03v3 ad=0.52p pd=2.52u as=0.52p ps=2.52u w=2u l=0.5u
X2 a_138_0# a_38_n132# a_n84_0# VSUBS nfet_03v3 ad=0.52p pd=2.52u as=1.22p ps=5.22u w=2u l=0.5u
X3 a_750_0# a_650_n132# a_546_0# VSUBS nfet_03v3 ad=1.22p pd=5.22u as=0.52p ps=2.52u w=2u l=0.5u
.ends

.subckt pfet$4 a_1158_0# a_750_0# a_546_0# a_446_n60# a_242_n60# a_1566_0# a_954_0#
+ a_1466_n60# w_n180_n88# a_1262_n60# a_38_n60# a_n92_0# a_1058_n60# a_854_n60# a_342_0#
+ a_138_0# a_650_n60# a_1362_0#
X0 a_1362_0# a_1262_n60# a_1158_0# w_n180_n88# pfet_03v3 ad=0.65p pd=3.02u as=0.65p ps=3.02u w=2.5u l=0.5u
X1 a_954_0# a_854_n60# a_750_0# w_n180_n88# pfet_03v3 ad=0.65p pd=3.02u as=0.65p ps=3.02u w=2.5u l=0.5u
X2 a_1566_0# a_1466_n60# a_1362_0# w_n180_n88# pfet_03v3 ad=1.625p pd=6.3u as=0.65p ps=3.02u w=2.5u l=0.5u
X3 a_342_0# a_242_n60# a_138_0# w_n180_n88# pfet_03v3 ad=0.65p pd=3.02u as=0.65p ps=3.02u w=2.5u l=0.5u
X4 a_546_0# a_446_n60# a_342_0# w_n180_n88# pfet_03v3 ad=0.65p pd=3.02u as=0.65p ps=3.02u w=2.5u l=0.5u
X5 a_1158_0# a_1058_n60# a_954_0# w_n180_n88# pfet_03v3 ad=0.65p pd=3.02u as=0.65p ps=3.02u w=2.5u l=0.5u
X6 a_138_0# a_38_n60# a_n92_0# w_n180_n88# pfet_03v3 ad=0.65p pd=3.02u as=1.625p ps=6.3u w=2.5u l=0.5u
X7 a_750_0# a_650_n60# a_546_0# w_n180_n88# pfet_03v3 ad=0.65p pd=3.02u as=0.65p ps=3.02u w=2.5u l=0.5u
.ends

.subckt pfet$8 a_750_0# a_546_0# a_446_n60# a_242_n60# w_n180_n88# a_38_n60# a_n92_0#
+ a_342_0# a_138_0# a_650_n60#
X0 a_342_0# a_242_n60# a_138_0# w_n180_n88# pfet_03v3 ad=0.65p pd=3.02u as=0.65p ps=3.02u w=2.5u l=0.5u
X1 a_546_0# a_446_n60# a_342_0# w_n180_n88# pfet_03v3 ad=0.65p pd=3.02u as=0.65p ps=3.02u w=2.5u l=0.5u
X2 a_138_0# a_38_n60# a_n92_0# w_n180_n88# pfet_03v3 ad=0.65p pd=3.02u as=1.625p ps=6.3u w=2.5u l=0.5u
X3 a_750_0# a_650_n60# a_546_0# w_n180_n88# pfet_03v3 ad=1.625p pd=6.3u as=0.65p ps=3.02u w=2.5u l=0.5u
.ends

.subckt pfet$6 a_28_460# w_n180_n88# a_n92_0# a_94_0#
X0 a_94_0# a_28_460# a_n92_0# w_n180_n88# pfet_03v3 ad=1.3p pd=5.3u as=1.3p ps=5.3u w=2u l=0.28u
.ends

.subckt nfet$9 a_n84_0# a_38_n132# a_342_0# a_138_0# a_242_n132# VSUBS
X0 a_342_0# a_242_n132# a_138_0# VSUBS nfet_03v3 ad=1.22p pd=5.22u as=0.52p ps=2.52u w=2u l=0.5u
X1 a_138_0# a_38_n132# a_n84_0# VSUBS nfet_03v3 ad=0.52p pd=2.52u as=1.22p ps=5.22u w=2u l=0.5u
.ends

.subckt nfet$7 a_750_0# a_546_0# a_446_n132# a_n84_0# a_650_n132# a_38_n132# a_342_0#
+ a_138_0# a_242_n132# VSUBS
X0 a_342_0# a_242_n132# a_138_0# VSUBS nfet_03v3 ad=0.26p pd=1.52u as=0.26p ps=1.52u w=1u l=0.5u
X1 a_546_0# a_446_n132# a_342_0# VSUBS nfet_03v3 ad=0.26p pd=1.52u as=0.26p ps=1.52u w=1u l=0.5u
X2 a_138_0# a_38_n132# a_n84_0# VSUBS nfet_03v3 ad=0.26p pd=1.52u as=0.61p ps=3.22u w=1u l=0.5u
X3 a_750_0# a_650_n132# a_546_0# VSUBS nfet_03v3 ad=0.61p pd=3.22u as=0.26p ps=1.52u w=1u l=0.5u
.ends

.subckt cap_mim m4_n120_n120# m4_0_0#
X0 m4_0_0# m4_n120_n120# cap_mim_2f0_m4m5_noshield c_width=50u c_length=100u
.ends

.subckt nfet$2 a_254_0# a_30_n132# a_n84_0# a_94_0# a_190_n132# VSUBS
X0 a_254_0# a_190_n132# a_94_0# VSUBS nfet_03v3 ad=1.22p pd=5.22u as=0.52p ps=2.52u w=2u l=0.28u
X1 a_94_0# a_30_n132# a_n84_0# VSUBS nfet_03v3 ad=0.52p pd=2.52u as=1.22p ps=5.22u w=2u l=0.28u
.ends

.subckt pfet$2 a_28_n136# a_254_0# a_188_n136# w_n180_n88# a_348_n136# a_414_0# a_n92_0#
+ a_94_0# a_574_0# a_508_n136#
X0 a_254_0# a_188_n136# a_94_0# w_n180_n88# pfet_03v3 ad=0.65p pd=3.02u as=0.65p ps=3.02u w=2.5u l=0.28u
X1 a_574_0# a_508_n136# a_414_0# w_n180_n88# pfet_03v3 ad=1.625p pd=6.3u as=0.65p ps=3.02u w=2.5u l=0.28u
X2 a_94_0# a_28_n136# a_n92_0# w_n180_n88# pfet_03v3 ad=0.65p pd=3.02u as=1.625p ps=6.3u w=2.5u l=0.28u
X3 a_414_0# a_348_n136# a_254_0# w_n180_n88# pfet_03v3 ad=0.65p pd=3.02u as=0.65p ps=3.02u w=2.5u l=0.28u
.ends

.subckt nfet$3 a_510_n132# a_254_0# a_414_0# a_30_n132# a_n84_0# a_94_0# a_190_n132#
+ a_574_0# a_350_n132# VSUBS
X0 a_254_0# a_190_n132# a_94_0# VSUBS nfet_03v3 ad=0.52p pd=2.52u as=0.52p ps=2.52u w=2u l=0.28u
X1 a_574_0# a_510_n132# a_414_0# VSUBS nfet_03v3 ad=1.22p pd=5.22u as=0.52p ps=2.52u w=2u l=0.28u
X2 a_94_0# a_30_n132# a_n84_0# VSUBS nfet_03v3 ad=0.52p pd=2.52u as=1.22p ps=5.22u w=2u l=0.28u
X3 a_414_0# a_350_n132# a_254_0# VSUBS nfet_03v3 ad=0.52p pd=2.52u as=0.52p ps=2.52u w=2u l=0.28u
.ends

.subckt pfet$3 a_28_n136# a_254_0# a_188_n136# w_n180_n88# a_n92_0# a_94_0#
X0 a_254_0# a_188_n136# a_94_0# w_n180_n88# pfet_03v3 ad=1.625p pd=6.3u as=0.65p ps=3.02u w=2.5u l=0.28u
X1 a_94_0# a_28_n136# a_n92_0# w_n180_n88# pfet_03v3 ad=0.65p pd=3.02u as=1.625p ps=6.3u w=2.5u l=0.28u
.ends

.subckt OTAforChargePump vdd vss iref inn inp out
Xnfet$2_2 vss m1_116_n1334# vss m1_116_n1334# m1_116_n1334# vss nfet$2
Xnfet$2_3 vss m1_116_n1334# vss out m1_116_n1334# vss nfet$2
Xpfet$2_0 inn m1_n400_n914# inn vdd inn out m1_n400_n914# out m1_n400_n914# inn pfet$2
Xpfet$2_1 inp m1_n400_n914# inp vdd inp m1_116_n1334# m1_n400_n914# m1_116_n1334#
+ m1_n400_n914# inp pfet$2
Xpfet$2_10 iref vdd iref vdd iref iref vdd iref vdd iref pfet$2
Xpfet$2_2 iref vdd iref vdd iref iref vdd iref vdd iref pfet$2
Xpfet$2_11 iref vdd iref vdd iref m1_n400_n914# vdd m1_n400_n914# vdd iref pfet$2
Xpfet$2_3 iref vdd iref vdd iref m1_n400_n914# vdd m1_n400_n914# vdd iref pfet$2
Xnfet$3_0 vss vss vss vss vss vss vss vss vss vss nfet$3
Xpfet$2_4 iref vdd iref vdd iref m1_n400_n914# vdd m1_n400_n914# vdd iref pfet$2
Xnfet$3_1 vss vss vss vss vss vss vss vss vss vss nfet$3
Xpfet$2_5 iref vdd iref vdd iref iref vdd iref vdd iref pfet$2
Xpfet$2_6 iref vdd iref vdd iref iref vdd iref vdd iref pfet$2
Xpfet$2_8 inp m1_n400_n914# inp vdd inp m1_116_n1334# m1_n400_n914# m1_116_n1334#
+ m1_n400_n914# inp pfet$2
Xpfet$2_7 iref vdd iref vdd iref m1_n400_n914# vdd m1_n400_n914# vdd iref pfet$2
Xpfet$2_9 inn m1_n400_n914# inn vdd inn out m1_n400_n914# out m1_n400_n914# inn pfet$2
Xpfet$3_0 m1_n400_n914# m1_n400_n914# m1_n400_n914# vdd m1_n400_n914# m1_n400_n914#
+ pfet$3
Xpfet$3_1 m1_n400_n914# m1_n400_n914# m1_n400_n914# vdd m1_n400_n914# m1_n400_n914#
+ pfet$3
Xpfet$3_2 vdd vdd vdd vdd vdd vdd pfet$3
Xpfet$3_4 vdd vdd vdd vdd vdd vdd pfet$3
Xpfet$3_3 vdd vdd vdd vdd vdd vdd pfet$3
Xpfet$3_5 vdd vdd vdd vdd vdd vdd pfet$3
Xnfet$2_0 vss m1_116_n1334# vss out m1_116_n1334# vss nfet$2
Xnfet$2_1 vss m1_116_n1334# vss m1_116_n1334# m1_116_n1334# vss nfet$2
.ends

.subckt pfet$9 a_1054_0# a_734_0# a_828_n136# a_28_n136# a_254_0# a_894_0# a_188_n136#
+ a_988_n136# w_n180_n88# a_348_n136# a_1214_0# a_1148_n136# a_414_0# a_n92_0# a_94_0#
+ a_574_0# a_508_n136# a_668_n136#
X0 a_1214_0# a_1148_n136# a_1054_0# w_n180_n88# pfet_03v3 ad=1.625p pd=6.3u as=0.65p ps=3.02u w=2.5u l=0.28u
X1 a_734_0# a_668_n136# a_574_0# w_n180_n88# pfet_03v3 ad=0.65p pd=3.02u as=0.65p ps=3.02u w=2.5u l=0.28u
X2 a_254_0# a_188_n136# a_94_0# w_n180_n88# pfet_03v3 ad=0.65p pd=3.02u as=0.65p ps=3.02u w=2.5u l=0.28u
X3 a_574_0# a_508_n136# a_414_0# w_n180_n88# pfet_03v3 ad=0.65p pd=3.02u as=0.65p ps=3.02u w=2.5u l=0.28u
X4 a_1054_0# a_988_n136# a_894_0# w_n180_n88# pfet_03v3 ad=0.65p pd=3.02u as=0.65p ps=3.02u w=2.5u l=0.28u
X5 a_894_0# a_828_n136# a_734_0# w_n180_n88# pfet_03v3 ad=0.65p pd=3.02u as=0.65p ps=3.02u w=2.5u l=0.28u
X6 a_94_0# a_28_n136# a_n92_0# w_n180_n88# pfet_03v3 ad=0.65p pd=3.02u as=1.625p ps=6.3u w=2.5u l=0.28u
X7 a_414_0# a_348_n136# a_254_0# w_n180_n88# pfet_03v3 ad=0.65p pd=3.02u as=0.65p ps=3.02u w=2.5u l=0.28u
.ends

.subckt pfet$7 w_n180_n88# a_n92_0# a_138_0# a_38_n136#
X0 a_138_0# a_38_n136# a_n92_0# w_n180_n88# pfet_03v3 ad=1.95p pd=7.3u as=1.95p ps=7.3u w=3u l=0.5u
.ends

.subckt ppolyf_u_resistor a_4000_0# a_n376_0# a_n132_0#
X0 a_n132_0# a_4000_0# a_n376_0# ppolyf_u r_width=1u r_length=20u
.ends

.subckt pfet$5 w_n180_n88# a_n92_0# a_342_0# a_138_0# a_38_n136# a_242_n136#
X0 a_342_0# a_242_n136# a_138_0# w_n180_n88# pfet_03v3 ad=0.8125p pd=3.8u as=0.325p ps=1.77u w=1.25u l=0.5u
X1 a_138_0# a_38_n136# a_n92_0# w_n180_n88# pfet_03v3 ad=0.325p pd=1.77u as=0.8125p ps=3.8u w=1.25u l=0.5u
.ends

.subckt nfet$8 a_38_n60# a_n84_0# a_138_0# VSUBS
X0 a_138_0# a_38_n60# a_n84_0# VSUBS nfet_03v3 ad=0.61p pd=3.22u as=0.61p ps=3.22u w=1u l=0.5u
.ends

.subckt nfet$6 a_n84_0# a_38_n132# a_342_0# a_138_0# a_242_n132# VSUBS
X0 a_342_0# a_242_n132# a_138_0# VSUBS nfet_03v3 ad=0.61p pd=3.22u as=0.26p ps=1.52u w=1u l=0.5u
X1 a_138_0# a_38_n132# a_n84_0# VSUBS nfet_03v3 ad=0.26p pd=1.52u as=0.61p ps=3.22u w=1u l=0.5u
.ends

.subckt nfet$10 a_510_n132# a_254_0# a_414_0# a_30_n132# a_n84_0# a_94_0# a_190_n132#
+ a_574_0# a_350_n132# VSUBS
X0 a_254_0# a_190_n132# a_94_0# VSUBS nfet_03v3 ad=0.52p pd=2.52u as=0.52p ps=2.52u w=2u l=0.28u
X1 a_574_0# a_510_n132# a_414_0# VSUBS nfet_03v3 ad=1.22p pd=5.22u as=0.52p ps=2.52u w=2u l=0.28u
X2 a_94_0# a_30_n132# a_n84_0# VSUBS nfet_03v3 ad=0.52p pd=2.52u as=1.22p ps=5.22u w=2u l=0.28u
X3 a_414_0# a_350_n132# a_254_0# VSUBS nfet_03v3 ad=0.52p pd=2.52u as=0.52p ps=2.52u w=2u l=0.28u
.ends

.subckt PCP1248X vdd vss s3 s2 s1 s0 vin iref200u out up down
Xnfet$4_5 s0 OTAforChargePump_0/out m1_16753_5552# vss nfet$4
Xnfet$5_36 OTAforChargePump_0/inp m1_9475_12045# m1_9963_14448# OTAforChargePump_0/inp
+ m1_9963_14448# m1_9963_14448# OTAforChargePump_0/inp m1_9475_12045# m1_9963_14448#
+ vss nfet$5
Xnfet$5_25 vss m1_14167_n938# m1_14137_3830# vss m1_14137_3830# m1_14137_3830# vss
+ m1_14167_n938# m1_14137_3830# vss nfet$5
Xnfet$5_14 m1_13543_n1758# m1_14167_n938# m1_9963_14448# m1_13543_n1758# m1_9963_14448#
+ m1_9963_14448# m1_13543_n1758# m1_14167_n938# m1_9963_14448# vss nfet$5
Xpfet$4_31 m1_n2925_n36# m1_n2925_n36# m1_1671_n1319# m1_n1751_n2187# m1_n1751_n2187#
+ m1_n2925_n36# m1_1671_n1319# m1_n1751_n2187# vdd m1_n1751_n2187# m1_n1751_n2187#
+ m1_n2925_n36# m1_n1751_n2187# m1_n1751_n2187# m1_n2925_n36# m1_1671_n1319# m1_n1751_n2187#
+ m1_1671_n1319# pfet$4
Xpfet$4_20 m1_n2925_n36# m1_n2925_n36# m1_n2925_n36# m1_n2925_n36# m1_n2925_n36# m1_n2925_n36#
+ m1_n2925_n36# m1_n2925_n36# vdd m1_n2925_n36# m1_n2925_n36# m1_n2925_n36# m1_n2925_n36#
+ m1_n2925_n36# m1_n2925_n36# m1_n2925_n36# m1_n2925_n36# m1_n2925_n36# pfet$4
Xnfet$4_6 m1_n1311_12403# m1_15009_5932# vss vss nfet$4
Xnfet$5_26 vss m1_14167_n938# m1_14137_3830# vss m1_14137_3830# m1_14137_3830# vss
+ m1_14167_n938# m1_14137_3830# vss nfet$5
Xnfet$5_15 vss vss vss vss vss vss vss vss vss vss nfet$5
Xpfet$4_10 vdd vdd m1_n1721_n939# m1_n1771_4009# m1_n1771_4009# vdd m1_n1721_n939#
+ m1_n1771_4009# vdd m1_n1771_4009# m1_n1771_4009# vdd m1_n1771_4009# m1_n1771_4009#
+ vdd m1_n1721_n939# m1_n1771_4009# m1_n1721_n939# pfet$4
Xpfet$4_32 m1_n2925_n36# m1_n2925_n36# m1_1671_n1319# m1_n1751_n2187# m1_n1751_n2187#
+ m1_n2925_n36# m1_1671_n1319# m1_n1751_n2187# vdd m1_n1751_n2187# m1_n1751_n2187#
+ m1_n2925_n36# m1_n1751_n2187# m1_n1751_n2187# m1_n2925_n36# m1_1671_n1319# m1_n1751_n2187#
+ m1_1671_n1319# pfet$4
Xpfet$4_21 vdd vdd m1_1671_873# m1_1641_5849# m1_1641_5849# vdd m1_1671_873# m1_1641_5849#
+ vdd m1_1641_5849# m1_1641_5849# vdd m1_1641_5849# m1_1641_5849# vdd m1_1671_873#
+ m1_1641_5849# m1_1671_873# pfet$4
Xpfet$8_0 m1_n2925_n36# m1_n2925_n36# m1_n2925_n36# m1_n2925_n36# vdd m1_n2925_n36#
+ m1_n2925_n36# m1_n2925_n36# m1_n2925_n36# m1_n2925_n36# pfet$8
Xnfet$4_7 s1 OTAforChargePump_0/out m1_15009_5932# vss nfet$4
Xnfet$5_27 vss m1_15911_n1318# m1_15881_3450# vss m1_15881_3450# m1_15881_3450# vss
+ m1_15911_n1318# m1_15881_3450# vss nfet$5
Xnfet$5_16 vss vss vss vss vss vss vss vss vss vss nfet$5
Xpfet$4_11 vdd vdd m1_n1721_n939# m1_n1771_4009# m1_n1771_4009# vdd m1_n1721_n939#
+ m1_n1771_4009# vdd m1_n1771_4009# m1_n1771_4009# vdd m1_n1771_4009# m1_n1771_4009#
+ vdd m1_n1721_n939# m1_n1771_4009# m1_n1721_n939# pfet$4
Xpfet$4_22 vdd vdd m1_1671_n1319# m1_1137_12199# m1_1137_12199# vdd m1_1671_n1319#
+ m1_1137_12199# vdd m1_1137_12199# m1_1137_12199# vdd m1_1137_12199# m1_1137_12199#
+ vdd m1_1671_n1319# m1_1137_12199# m1_1671_n1319# pfet$4
Xpfet$4_33 vdd vdd m1_1671_n1319# m1_1137_12199# m1_1137_12199# vdd m1_1671_n1319#
+ m1_1137_12199# vdd m1_1137_12199# m1_1137_12199# vdd m1_1137_12199# m1_1137_12199#
+ vdd m1_1671_n1319# m1_1137_12199# m1_1671_n1319# pfet$4
Xpfet$8_1 m1_n47_11059# m1_n47_11059# m1_n47_11059# m1_n47_11059# vdd m1_n47_11059#
+ m1_n47_11059# m1_n47_11059# m1_n47_11059# m1_n47_11059# pfet$8
Xnfet$4_8 m1_n2083_12403# m1_15881_3450# vss vss nfet$4
Xnfet$5_28 vss m1_15911_n1318# m1_15881_3450# vss m1_15881_3450# m1_15881_3450# vss
+ m1_15911_n1318# m1_15881_3450# vss nfet$5
Xnfet$5_17 vss m1_16783_404# m1_16753_5552# vss m1_16753_5552# m1_16753_5552# vss
+ m1_16783_404# m1_16753_5552# vss nfet$5
Xpfet$4_12 m1_n2925_n36# m1_n2925_n36# m1_n1721_n939# m1_n1751_n2187# m1_n1751_n2187#
+ m1_n2925_n36# m1_n1721_n939# m1_n1751_n2187# vdd m1_n1751_n2187# m1_n1751_n2187#
+ m1_n2925_n36# m1_n1751_n2187# m1_n1751_n2187# m1_n2925_n36# m1_n1721_n939# m1_n1751_n2187#
+ m1_n1721_n939# pfet$4
Xpfet$4_23 vdd vdd m1_n1721_n939# m1_n1771_4009# m1_n1771_4009# vdd m1_n1721_n939#
+ m1_n1771_4009# vdd m1_n1771_4009# m1_n1771_4009# vdd m1_n1771_4009# m1_n1771_4009#
+ vdd m1_n1721_n939# m1_n1771_4009# m1_n1721_n939# pfet$4
Xpfet$4_34 vdd vdd m1_1671_n1319# m1_1137_12199# m1_1137_12199# vdd m1_1671_n1319#
+ m1_1137_12199# vdd m1_1137_12199# m1_1137_12199# vdd m1_1137_12199# m1_1137_12199#
+ vdd m1_1671_n1319# m1_1137_12199# m1_1671_n1319# pfet$4
Xpfet$8_2 m1_n2925_n36# m1_n2925_n36# m1_n2925_n36# m1_n2925_n36# vdd m1_n2925_n36#
+ m1_n2925_n36# m1_n2925_n36# m1_n2925_n36# m1_n2925_n36# pfet$8
Xnfet$4_9 s2 OTAforChargePump_0/out m1_15881_3450# vss nfet$4
Xnfet$5_29 vss m1_14167_n938# m1_14137_3830# vss m1_14137_3830# m1_14137_3830# vss
+ m1_14167_n938# m1_14137_3830# vss nfet$5
Xnfet$5_18 vss m1_15039_784# m1_15009_5932# vss m1_15009_5932# m1_15009_5932# vss
+ m1_15039_784# m1_15009_5932# vss nfet$5
Xpfet$8_3 vdd vdd vdd vdd vdd vdd vdd vdd vdd vdd pfet$8
Xpfet$4_13 m1_n2925_n36# m1_n2925_n36# m1_1671_n1319# m1_n1751_n2187# m1_n1751_n2187#
+ m1_n2925_n36# m1_1671_n1319# m1_n1751_n2187# vdd m1_n1751_n2187# m1_n1751_n2187#
+ m1_n2925_n36# m1_n1751_n2187# m1_n1751_n2187# m1_n2925_n36# m1_1671_n1319# m1_n1751_n2187#
+ m1_1671_n1319# pfet$4
Xpfet$4_24 vdd vdd m1_n25_493# m1_n91_6229# m1_n91_6229# vdd m1_n25_493# m1_n91_6229#
+ vdd m1_n91_6229# m1_n91_6229# vdd m1_n91_6229# m1_n91_6229# vdd m1_n25_493# m1_n91_6229#
+ m1_n25_493# pfet$4
Xpfet$4_35 vdd vdd vdd vdd vdd vdd vdd vdd vdd vdd vdd vdd vdd vdd vdd vdd vdd vdd
+ pfet$4
Xpfet$6_0 m1_n539_12403# vdd m1_n47_11059# m1_1641_5849# pfet$6
Xnfet$9_0 m1_13543_n1758# m1_13543_n1758# m1_13543_n1758# m1_13543_n1758# m1_13543_n1758#
+ vss nfet$9
Xnfet$5_19 vss m1_15911_n1318# m1_15881_3450# vss m1_15881_3450# m1_15881_3450# vss
+ m1_15911_n1318# m1_15881_3450# vss nfet$5
Xpfet$4_14 m1_n2925_n36# m1_n2925_n36# m1_n1721_n939# m1_n1751_n2187# m1_n1751_n2187#
+ m1_n2925_n36# m1_n1721_n939# m1_n1751_n2187# vdd m1_n1751_n2187# m1_n1751_n2187#
+ m1_n2925_n36# m1_n1751_n2187# m1_n1751_n2187# m1_n2925_n36# m1_n1721_n939# m1_n1751_n2187#
+ m1_n1721_n939# pfet$4
Xpfet$4_25 vdd vdd m1_1671_n1319# m1_1137_12199# m1_1137_12199# vdd m1_1671_n1319#
+ m1_1137_12199# vdd m1_1137_12199# m1_1137_12199# vdd m1_1137_12199# m1_1137_12199#
+ vdd m1_1671_n1319# m1_1137_12199# m1_1671_n1319# pfet$4
Xpfet$8_4 vdd vdd vdd vdd vdd vdd vdd vdd vdd vdd pfet$8
Xpfet$6_1 s0 vdd m1_1641_5849# vdd pfet$6
Xnfet$9_1 m1_13543_n1758# m1_13543_n1758# m1_13543_n1758# m1_13543_n1758# m1_13543_n1758#
+ vss nfet$9
Xpfet$4_15 m1_n2925_n36# m1_n2925_n36# m1_1671_n1319# m1_n1751_n2187# m1_n1751_n2187#
+ m1_n2925_n36# m1_1671_n1319# m1_n1751_n2187# vdd m1_n1751_n2187# m1_n1751_n2187#
+ m1_n2925_n36# m1_n1751_n2187# m1_n1751_n2187# m1_n2925_n36# m1_1671_n1319# m1_n1751_n2187#
+ m1_1671_n1319# pfet$4
Xpfet$4_26 vdd vdd m1_n1721_n939# m1_n1771_4009# m1_n1771_4009# vdd m1_n1721_n939#
+ m1_n1771_4009# vdd m1_n1771_4009# m1_n1771_4009# vdd m1_n1771_4009# m1_n1771_4009#
+ vdd m1_n1721_n939# m1_n1771_4009# m1_n1721_n939# pfet$4
Xpfet$8_5 vdd vdd vdd vdd vdd vdd vdd vdd vdd vdd pfet$8
Xpfet$6_2 s3 vdd m1_n1771_4009# vdd pfet$6
Xnfet$9_2 m1_13543_n1758# m1_13543_n1758# m1_13543_n1758# m1_13543_n1758# m1_13543_n1758#
+ vss nfet$9